REMARK  5 active torsions:
REMARK  status: ('A' for Active; 'I' for Inactive)
REMARK    1  A    between atoms: XX_3  and  XX_26 
REMARK    2  A    between atoms: XX_6  and  XX_10 
REMARK    3  A    between atoms: XX_10  and  XX_13 
REMARK    4  A    between atoms: XX_15  and  XX_16 
REMARK    5  A    between atoms: XX_16  and  XX_20 
ROOT
ATOM      1  XX  LIG d   1      -6.855  -0.867  -0.090  0.00  0.00     0.044 A 
ATOM      2  XX  LIG d   1      -5.668  -1.522   0.252  0.00  0.00     0.025 A 
ATOM      3  XX  LIG d   1      -4.517  -0.794   0.458  0.00  0.00     0.031 A 
ATOM      4  XX  LIG d   1      -4.535   0.591   0.327  0.00  0.00     0.049 A 
ATOM      5  XX  LIG d   1      -5.715   1.246  -0.013  0.00  0.00     0.031 A 
ATOM      6  XX  LIG d   1      -6.869   0.524  -0.221  0.00  0.00     0.025 A 
ATOM      7  XX  LIG d   1      -9.002  -2.220  -0.487  0.00  0.00    -0.191 NA
ATOM      8  XX  LIG d   1      -8.052  -1.621  -0.311  0.00  0.00     0.099 C 
ENDROOT
BRANCH   4   9
ATOM      9  XX  LIG d   1      -3.369   1.324   0.538  0.00  0.00    -0.188 N 
ATOM     10  XX  LIG d   1      -3.418   2.214   0.921  0.00  0.00     0.184 HD
BRANCH   9  11
ATOM     11  XX  LIG d   1      -2.139   0.782   0.199  0.00  0.00     0.728 A 
ATOM     12  XX  LIG d   1      -2.098  -0.386  -0.425  0.00  0.00    -0.075 NA
ATOM     13  XX  LIG d   1      -0.942  -0.936  -0.765  0.00  0.00     0.140 A 
ATOM     14  XX  LIG d   1       0.235  -0.278  -0.461  0.00  0.00     0.071 A 
ATOM     15  XX  LIG d   1       0.160   0.951   0.197  0.00  0.00     0.148 A 
ATOM     16  XX  LIG d   1      -1.035   1.444   0.508  0.00  0.00    -0.045 NA
BRANCH  15  17
ATOM     17  XX  LIG d   1       1.314   1.647   0.523  0.00  0.00    -0.340 N 
ATOM     18  XX  LIG d   1       1.253   2.515   0.951  0.00  0.00     0.167 HD
BRANCH  17  19
ATOM     19  XX  LIG d   1       2.563   1.098   0.234  0.00  0.00     0.045 A 
ATOM     20  XX  LIG d   1       3.269   0.423   1.225  0.00  0.00    -0.034 A 
ATOM     21  XX  LIG d   1       2.684   0.286   2.606  0.00  0.00     0.050 C 
ATOM     22  XX  LIG d   1       4.500  -0.126   0.942  0.00  0.00     0.020 A 
ATOM     23  XX  LIG d   1       5.040  -0.003  -0.343  0.00  0.00    -0.035 A 
ATOM     24  XX  LIG d   1       4.326   0.678  -1.336  0.00  0.00     0.020 A 
ATOM     25  XX  LIG d   1       3.099   1.228  -1.044  0.00  0.00    -0.034 A 
ATOM     26  XX  LIG d   1       2.329   1.961  -2.112  0.00  0.00     0.050 C 
BRANCH  23  27
ATOM     27  XX  LIG d   1       6.351  -0.593  -0.651  0.00  0.00     0.022 C 
ATOM     28  XX  LIG d   1       7.038  -1.248   0.308  0.00  0.00     0.094 C 
ATOM     29  XX  LIG d   1       8.315  -1.823   0.008  0.00  0.00     0.087 C 
ATOM     30  XX  LIG d   1       9.328  -2.279  -0.230  0.00  0.00    -0.192 NA
ENDBRANCH  23  27
ENDBRANCH  17  19
ENDBRANCH  15  17
ENDBRANCH   9  11
ENDBRANCH   4   9
TORSDOF 5
