REMARK  10 active torsions:
REMARK  status: ('A' for Active; 'I' for Inactive)
REMARK    1  A    between atoms: C1_1  and  C2_2 
REMARK    2  A    between atoms: C2_2  and  C3_4 
REMARK    3  A    between atoms: C2_2  and  C13_17 
REMARK    4  A    between atoms: C3_4  and  N1_5 
REMARK    5  A    between atoms: N1_5  and  C4_6 
REMARK       I    between atoms: N1_5  and  C10_12 
REMARK    6  A    between atoms: C10_12  and  C11_14 
REMARK    7  A    between atoms: C11_14  and  O2_15 
REMARK    8  A    between atoms: O2_15  and  C12_16 
REMARK    9  A    between atoms: C13_17  and  O4_19 
REMARK   10  A    between atoms: O4_19  and  C14_20 
ROOT
ATOM      1  N1  <0> d           2.233  -0.162   1.234  0.00  0.00    -0.345 N 
ATOM      2  C10 <0> d           3.093  -0.692   0.342  0.00  0.00     0.243 C 
ATOM      3  O1  <0> d           2.703  -1.510  -0.464  0.00  0.00    -0.271 OA
ENDROOT
BRANCH   1   4
ATOM      4  C3  <0> d           0.862  -0.669   1.321  0.00  0.00     0.010 C 
ATOM      5  H5  <0> d           0.448  -0.432   2.301  0.00  0.00     0.065 H 
ATOM      6  H6  <0> d           0.864  -1.749   1.178  0.00  0.00     0.065 H 
BRANCH   4   7
ATOM      7  C2  <0> d           0.006  -0.013   0.234  0.00  0.00     0.042 C 
ATOM      8  H1  <0> d           0.523  -0.078  -0.723  0.00  0.00     0.057 H 
BRANCH   7   9
ATOM      9  C1  <0> d          -0.228   1.457   0.589  0.00  0.00    -0.063 C 
ATOM     10  H2  <0> d           0.731   1.957   0.719  0.00  0.00     0.028 H 
ATOM     11  H3  <0> d          -0.784   1.940  -0.215  0.00  0.00     0.028 H 
ATOM     12  H4  <0> d          -0.800   1.521   1.515  0.00  0.00     0.028 H 
ENDBRANCH   7   9
BRANCH   7  13
ATOM     13  C13 <0> d          -1.318  -0.725   0.140  0.00  0.00     0.263 C 
ATOM     14  O3  <0> d          -1.554  -1.661   0.867  0.00  0.00    -0.265 OA
BRANCH  13  15
ATOM     15  O4  <0> d          -2.236  -0.319  -0.751  0.00  0.00    -0.326 OA
BRANCH  15  16
ATOM     16  C14 <0> d          -3.470  -1.040  -0.786  0.00  0.00     0.013 C 
ATOM     17  H23 <0> d          -3.273  -2.085  -1.023  0.00  0.00     0.067 H 
ATOM     18  H24 <0> d          -3.957  -0.973   0.187  0.00  0.00     0.067 H 
ATOM     19  H25 <0> d          -4.120  -0.610  -1.548  0.00  0.00     0.067 H 
ENDBRANCH  15  16
ENDBRANCH  13  15
ENDBRANCH   7  13
ENDBRANCH   4   7
ENDBRANCH   1   4
BRANCH   1  20
ATOM     20  C4  <0> d           2.671   0.922   2.119  0.00  0.00     0.015 C 
ATOM     21  C9  <0> d           3.045   2.145   1.280  0.00  0.00    -0.046 C 
ATOM     22  C8  <0> d           3.502   3.276   2.203  0.00  0.00    -0.063 C 
ATOM     23  H16 <0> d           3.854   1.884   0.597  0.00  0.00     0.036 H 
ATOM     24  H17 <0> d           2.178   2.472   0.706  0.00  0.00     0.036 H 
ATOM     25  C7  <0> d           2.367   3.643   3.160  0.00  0.00    -0.065 C 
ATOM     26  H14 <0> d           3.769   4.148   1.605  0.00  0.00     0.033 H 
ATOM     27  H15 <0> d           4.370   2.950   2.776  0.00  0.00     0.033 H 
ATOM     28  C6  <0> d           1.992   2.420   3.999  0.00  0.00    -0.063 C 
ATOM     29  H12 <0> d           1.499   3.970   2.587  0.00  0.00     0.033 H 
ATOM     30  H13 <0> d           2.692   4.449   3.818  0.00  0.00     0.033 H 
ATOM     31  C5  <0> d           1.535   1.288   3.076  0.00  0.00    -0.046 C 
ATOM     32  H10 <0> d           1.183   2.681   4.682  0.00  0.00     0.033 H 
ATOM     33  H11 <0> d           2.859   2.093   4.573  0.00  0.00     0.033 H 
ATOM     34  H8  <0> d           0.668   1.615   2.503  0.00  0.00     0.036 H 
ATOM     35  H9  <0> d           1.268   0.417   3.674  0.00  0.00     0.036 H 
ATOM     36  H7  <0> d           3.538   0.595   2.692  0.00  0.00     0.072 H 
ENDBRANCH   1  20
BRANCH   2  37
ATOM     37  C11 <0> d           4.539  -0.268   0.345  0.00  0.00     0.092 C 
ATOM     38  H18 <0> d           4.612   0.778   0.048  0.00  0.00     0.088 H 
ATOM     39  H19 <0> d           4.951  -0.390   1.347  0.00  0.00     0.088 H 
BRANCH  37  40
ATOM     40  O2  <0> d           5.275  -1.077  -0.574  0.00  0.00    -0.387 OA
BRANCH  40  41
ATOM     41  C12 <0> d           6.665  -0.756  -0.648  0.00  0.00     0.005 C 
ATOM     42  H20 <0> d           6.782   0.280  -0.966  0.00  0.00     0.066 H 
ATOM     43  H21 <0> d           7.122  -0.888   0.334  0.00  0.00     0.066 H 
ATOM     44  H22 <0> d           7.153  -1.415  -1.366  0.00  0.00     0.066 H 
ENDBRANCH  40  41
ENDBRANCH  37  40
ENDBRANCH   2  37
TORSDOF 10
