REMARK  7 active torsions:
REMARK  status: ('A' for Active; 'I' for Inactive)
REMARK    1  A    between atoms: C1_1  and  O1_2 
REMARK    2  A    between atoms: O1_2  and  C2_3 
REMARK    3  A    between atoms: C2_3  and  C3_4 
REMARK    4  A    between atoms: C3_4  and  N1_5 
REMARK    5  A    between atoms: C9_12  and  O3_16 
REMARK    6  A    between atoms: O3_16  and  C12_17 
REMARK    7  A    between atoms: C12_17  and  C13_18 
ROOT
ATOM      1  N1  <0> d           1.401  -2.532  -0.162  0.00  0.00    -0.325 N 
ATOM      2  C4  <0> d           0.868  -2.698  -1.519  0.00  0.00     0.125 A 
ATOM      3  H1  <0> d           0.086  -3.456  -1.524  0.00  0.00     0.104 H 
ATOM      4  C5  <0> d           2.027  -3.143  -2.376  0.00  0.00    -0.003 A 
ATOM      5  C6  <0> d           2.149  -3.452  -3.709  0.00  0.00    -0.073 A 
ATOM      6  C7  <0> d           3.376  -3.841  -4.224  0.00  0.00    -0.080 A 
ATOM      7  C8  <0> d           4.483  -3.919  -3.402  0.00  0.00    -0.050 A 
ATOM      8  C9  <0> d           4.376  -3.609  -2.054  0.00  0.00     0.085 A 
ATOM      9  C10 <0> d           3.138  -3.216  -1.529  0.00  0.00     0.074 A 
ATOM     10  C11 <0> d           2.712  -2.827  -0.174  0.00  0.00     0.258 A 
ATOM     11  O2  <0> d           3.443  -2.782   0.797  0.00  0.00    -0.267 OA
ATOM     12  C19 <0> d           0.334  -1.418  -2.013  0.00  0.00     0.089 C 
ATOM     13  N2  <0> d          -0.077  -0.430  -2.394  0.00  0.00    -0.195 NA
ATOM     14  H9  <0> d           1.287  -3.393  -4.357  0.00  0.00     0.084 H 
ATOM     15  H10 <0> d           3.467  -4.084  -5.272  0.00  0.00     0.083 H 
ATOM     16  H11 <0> d           5.436  -4.223  -3.810  0.00  0.00     0.087 H 
ENDROOT
BRANCH   1  17
ATOM     17  C3  <0> d           0.633  -2.108   1.011  0.00  0.00     0.019 C 
ATOM     18  H7  <0> d           1.066  -2.550   1.908  0.00  0.00     0.067 H 
ATOM     19  H8  <0> d          -0.401  -2.437   0.906  0.00  0.00     0.067 H 
BRANCH  17  20
ATOM     20  C2  <0> d           0.673  -0.582   1.123  0.00  0.00     0.034 C 
ATOM     21  H5  <0> d           1.710  -0.247   1.139  0.00  0.00     0.076 H 
ATOM     22  H6  <0> d           0.177  -0.273   2.043  0.00  0.00     0.076 H 
BRANCH  20  23
ATOM     23  O1  <0> d           0.002  -0.004   0.002  0.00  0.00    -0.394 OA
BRANCH  23  24
ATOM     24  C1  <0> d          -0.017   1.425   0.010  0.00  0.00     0.004 C 
ATOM     25  H2  <0> d           1.005   1.802   0.002  0.00  0.00     0.066 H 
ATOM     26  H3  <0> d          -0.544   1.786  -0.873  0.00  0.00     0.066 H 
ATOM     27  H4  <0> d          -0.527   1.776   0.907  0.00  0.00     0.066 H 
ENDBRANCH  23  24
ENDBRANCH  20  23
ENDBRANCH  17  20
ENDBRANCH   1  17
BRANCH   8  28
ATOM     28  O3  <0> d           5.465  -3.686  -1.248  0.00  0.00    -0.346 OA
BRANCH  28  29
ATOM     29  C12 <0> d           6.693  -4.095  -1.855  0.00  0.00     0.050 C 
ATOM     30  H12 <0> d           6.573  -5.090  -2.282  0.00  0.00     0.082 H 
ATOM     31  H13 <0> d           6.961  -3.391  -2.642  0.00  0.00     0.082 H 
BRANCH  29  32
ATOM     32  C13 <0> d           7.782  -4.123  -0.813  0.00  0.00    -0.034 A 
ATOM     33  C18 <0> d           8.021  -5.278  -0.093  0.00  0.00    -0.075 A 
ATOM     34  C17 <0> d           9.023  -5.305   0.859  0.00  0.00    -0.082 A 
ATOM     35  H18 <0> d           7.427  -6.161  -0.277  0.00  0.00     0.084 H 
ATOM     36  C16 <0> d           9.780  -4.173   1.097  0.00  0.00    -0.083 A 
ATOM     37  H17 <0> d           9.212  -6.209   1.418  0.00  0.00     0.083 H 
ATOM     38  C15 <0> d           9.537  -3.016   0.381  0.00  0.00    -0.082 A 
ATOM     39  H16 <0> d          10.561  -4.194   1.843  0.00  0.00     0.083 H 
ATOM     40  C14 <0> d           8.539  -2.991  -0.574  0.00  0.00    -0.075 A 
ATOM     41  H15 <0> d          10.129  -2.132   0.567  0.00  0.00     0.083 H 
ATOM     42  H14 <0> d           8.349  -2.087  -1.134  0.00  0.00     0.084 H 
ENDBRANCH  29  32
ENDBRANCH  28  29
ENDBRANCH   8  28
TORSDOF 7
