REMARK  13 active torsions:
REMARK  status: ('A' for Active; 'I' for Inactive)
REMARK    1  A    between atoms: C1_1  and  C2_2 
REMARK    2  A    between atoms: C2_2  and  O1_3 
REMARK    3  A    between atoms: O1_3  and  C3_4 
REMARK    4  A    between atoms: C3_4  and  C4_6 
REMARK    5  A    between atoms: C4_6  and  C5_7 
REMARK    6  A    between atoms: C5_7  and  N1_8 
REMARK    7  A    between atoms: N1_8  and  C6_9 
REMARK       I    between atoms: N1_8  and  C9_12 
REMARK    8  A    between atoms: C6_9  and  C7_10 
REMARK    9  A    between atoms: C6_9  and  C8_11 
REMARK   10  A    between atoms: C9_12  and  C10_14 
REMARK   11  A    between atoms: C10_14  and  C11_15 
REMARK   12  A    between atoms: C10_14  and  C12_16 
REMARK   13  A    between atoms: C10_14  and  C13_17 
ROOT
ATOM      1  N1  <0> d          -4.274  -4.348   0.148  0.00  0.00    -0.347 N 
ATOM      2  C9  <0> d          -4.662  -4.736   1.379  0.00  0.00     0.227 C 
ATOM      3  O3  <0> d          -5.726  -5.297   1.531  0.00  0.00    -0.273 OA
ENDROOT
BRANCH   1   4
ATOM      4  C5  <0> d          -3.056  -3.552  -0.019  0.00  0.00     0.006 C 
ATOM      5  H8  <0> d          -2.549  -3.852  -0.937  0.00  0.00     0.065 H 
ATOM      6  H9  <0> d          -2.394  -3.717   0.832  0.00  0.00     0.065 H 
BRANCH   4   7
ATOM      7  C4  <0> d          -3.422  -2.069  -0.100  0.00  0.00     0.031 C 
ATOM      8  H6  <0> d          -3.991  -1.786   0.785  0.00  0.00     0.050 H 
ATOM      9  H7  <0> d          -4.025  -1.892  -0.991  0.00  0.00     0.050 H 
BRANCH   7  10
ATOM     10  C3  <0> d          -2.163  -1.244  -0.174  0.00  0.00     0.260 C 
ATOM     11  O2  <0> d          -1.084  -1.786  -0.163  0.00  0.00    -0.265 OA
BRANCH  10  12
ATOM     12  O1  <0> d          -2.241   0.094  -0.252  0.00  0.00    -0.322 OA
BRANCH  12  13
ATOM     13  C2  <0> d          -1.008   0.813  -0.319  0.00  0.00     0.025 C 
ATOM     14  H4  <0> d          -0.452   0.500  -1.203  0.00  0.00     0.074 H 
ATOM     15  H5  <0> d          -0.418   0.606   0.574  0.00  0.00     0.074 H 
BRANCH  13  16
ATOM     16  C1  <0> d          -1.296   2.313  -0.403  0.00  0.00    -0.056 C 
ATOM     17  H1  <0> d          -0.356   2.862  -0.453  0.00  0.00     0.030 H 
ATOM     18  H2  <0> d          -1.887   2.521  -1.295  0.00  0.00     0.030 H 
ATOM     19  H3  <0> d          -1.852   2.627   0.481  0.00  0.00     0.030 H 
ENDBRANCH  13  16
ENDBRANCH  12  13
ENDBRANCH  10  12
ENDBRANCH   7  10
ENDBRANCH   4   7
ENDBRANCH   1   4
BRANCH   1  20
ATOM     20  C6  <0> d          -5.072  -4.721  -1.022  0.00  0.00     0.007 C 
ATOM     21  H10 <0> d          -4.560  -4.398  -1.929  0.00  0.00     0.071 H 
BRANCH  20  22
ATOM     22  C7  <0> d          -5.252  -6.240  -1.053  0.00  0.00    -0.057 C 
ATOM     23  H11 <0> d          -5.844  -6.553  -0.193  0.00  0.00     0.030 H 
ATOM     24  H12 <0> d          -5.766  -6.527  -1.971  0.00  0.00     0.030 H 
ATOM     25  H13 <0> d          -4.276  -6.723  -1.017  0.00  0.00     0.030 H 
ENDBRANCH  20  22
BRANCH  20  26
ATOM     26  C8  <0> d          -6.443  -4.046  -0.942  0.00  0.00    -0.057 C 
ATOM     27  H14 <0> d          -6.320  -2.965  -1.007  0.00  0.00     0.030 H 
ATOM     28  H15 <0> d          -7.066  -4.391  -1.767  0.00  0.00     0.030 H 
ATOM     29  H16 <0> d          -6.918  -4.301   0.005  0.00  0.00     0.030 H 
ENDBRANCH  20  26
ENDBRANCH   1  20
BRANCH   2  30
ATOM     30  C10 <0> d          -3.772  -4.472   2.567  0.00  0.00     0.030 C 
BRANCH  30  31
ATOM     31  C11 <0> d          -4.482  -4.923   3.846  0.00  0.00    -0.061 C 
ATOM     32  H17 <0> d          -4.700  -5.989   3.784  0.00  0.00     0.029 H 
ATOM     33  H18 <0> d          -3.839  -4.732   4.705  0.00  0.00     0.029 H 
ATOM     34  H19 <0> d          -5.414  -4.368   3.959  0.00  0.00     0.029 H 
ENDBRANCH  30  31
BRANCH  30  35
ATOM     35  C12 <0> d          -2.465  -5.251   2.408  0.00  0.00    -0.061 C 
ATOM     36  H20 <0> d          -1.919  -4.872   1.544  0.00  0.00     0.029 H 
ATOM     37  H21 <0> d          -1.857  -5.127   3.304  0.00  0.00     0.029 H 
ATOM     38  H22 <0> d          -2.687  -6.308   2.263  0.00  0.00     0.029 H 
ENDBRANCH  30  35
BRANCH  30  39
ATOM     39  C13 <0> d          -3.467  -2.976   2.654  0.00  0.00    -0.061 C 
ATOM     40  H23 <0> d          -4.398  -2.422   2.779  0.00  0.00     0.029 H 
ATOM     41  H24 <0> d          -2.815  -2.787   3.506  0.00  0.00     0.029 H 
ATOM     42  H25 <0> d          -2.972  -2.652   1.738  0.00  0.00     0.029 H 
ENDBRANCH  30  39
ENDBRANCH   2  30
TORSDOF 13
