REMARK  14 active torsions:
REMARK  status: ('A' for Active; 'I' for Inactive)
REMARK    1  A    between atoms: C1_1  and  C2_2 
REMARK    2  A    between atoms: C2_2  and  C3_4 
REMARK    3  A    between atoms: C2_2  and  C12_17 
REMARK    4  A    between atoms: C3_4  and  N1_5 
REMARK    5  A    between atoms: N1_5  and  C4_6 
REMARK       I    between atoms: N1_5  and  C7_11 
REMARK    6  A    between atoms: C4_6  and  C5_7 
REMARK    7  A    between atoms: C5_7  and  C6_9 
REMARK    8  A    between atoms: C5_7  and  O1_10 
REMARK    9  A    between atoms: C7_11  and  C8_13 
REMARK   10  A    between atoms: C8_13  and  C9_14 
REMARK   11  A    between atoms: C8_13  and  C10_15 
REMARK   12  A    between atoms: C8_13  and  C11_16 
REMARK   13  A    between atoms: C12_17  and  O4_19 
REMARK   14  A    between atoms: O4_19  and  C13_20 
ROOT
ATOM      1  N1  <0> d          -2.980   0.513  -0.801  0.00  0.00    -0.348 N 
ATOM      2  C7  <0> d          -3.068   1.761  -1.303  0.00  0.00     0.227 C 
ATOM      3  O2  <0> d          -2.855   2.718  -0.590  0.00  0.00    -0.273 OA
ENDROOT
BRANCH   1   4
ATOM      4  C3  <0> d          -2.680   0.315   0.619  0.00  0.00     0.009 C 
ATOM      5  H6  <0> d          -3.145  -0.609   0.963  0.00  0.00     0.065 H 
ATOM      6  H7  <0> d          -3.071   1.155   1.194  0.00  0.00     0.065 H 
BRANCH   4   7
ATOM      7  C2  <0> d          -1.165   0.225   0.813  0.00  0.00     0.042 C 
ATOM      8  H1  <0> d          -0.762  -0.558   0.170  0.00  0.00     0.057 H 
BRANCH   7   9
ATOM      9  C1  <0> d          -0.524   1.565   0.447  0.00  0.00    -0.063 C 
ATOM     10  H3  <0> d           0.556   1.502   0.585  0.00  0.00     0.028 H 
ATOM     11  H4  <0> d          -0.744   1.801  -0.594  0.00  0.00     0.028 H 
ATOM     12  H5  <0> d          -0.927   2.348   1.090  0.00  0.00     0.028 H 
ENDBRANCH   7   9
BRANCH   7  13
ATOM     13  C12 <0> d          -0.861  -0.101   2.252  0.00  0.00     0.263 C 
ATOM     14  O3  <0> d          -1.764  -0.247   3.042  0.00  0.00    -0.265 OA
BRANCH  13  15
ATOM     15  O4  <0> d           0.412  -0.230   2.657  0.00  0.00    -0.326 OA
BRANCH  15  16
ATOM     16  C13 <0> d           0.627  -0.540   4.035  0.00  0.00     0.013 C 
ATOM     17  H23 <0> d           0.201   0.249   4.655  0.00  0.00     0.067 H 
ATOM     18  H24 <0> d           0.147  -1.489   4.273  0.00  0.00     0.067 H 
ATOM     19  H25 <0> d           1.697  -0.615   4.228  0.00  0.00     0.067 H 
ENDBRANCH  15  16
ENDBRANCH  13  15
ENDBRANCH   7  13
ENDBRANCH   4   7
ENDBRANCH   1   4
BRANCH   1  20
ATOM     20  C4  <0> d          -3.183  -0.644  -1.676  0.00  0.00     0.021 C 
ATOM     21  H8  <0> d          -2.977  -0.360  -2.708  0.00  0.00     0.068 H 
ATOM     22  H9  <0> d          -2.508  -1.447  -1.378  0.00  0.00     0.068 H 
BRANCH  20  23
ATOM     23  C5  <0> d          -4.631  -1.125  -1.558  0.00  0.00     0.047 C 
ATOM     24  H2  <0> d          -5.306  -0.304  -1.800  0.00  0.00     0.084 H 
BRANCH  23  25
ATOM     25  C6  <0> d          -4.865  -2.282  -2.530  0.00  0.00    -0.051 C 
ATOM     26  H10 <0> d          -4.189  -3.103  -2.288  0.00  0.00     0.030 H 
ATOM     27  H11 <0> d          -5.896  -2.624  -2.446  0.00  0.00     0.030 H 
ATOM     28  H12 <0> d          -4.676  -1.945  -3.550  0.00  0.00     0.030 H 
ENDBRANCH  23  25
BRANCH  23  29
ATOM     29  O1  <0> d          -4.879  -1.567  -0.222  0.00  0.00    -0.394 OA
ATOM     30  H13 <0> d          -4.312  -2.297   0.062  0.00  0.00     0.210 HD
ENDBRANCH  23  29
ENDBRANCH  20  23
ENDBRANCH   1  20
BRANCH   2  31
ATOM     31  C8  <0> d          -3.433   1.966  -2.751  0.00  0.00     0.030 C 
BRANCH  31  32
ATOM     32  C9  <0> d          -3.712   3.450  -3.001  0.00  0.00    -0.061 C 
ATOM     33  H14 <0> d          -2.822   4.032  -2.764  0.00  0.00     0.029 H 
ATOM     34  H15 <0> d          -3.976   3.599  -4.048  0.00  0.00     0.029 H 
ATOM     35  H16 <0> d          -4.538   3.776  -2.369  0.00  0.00     0.029 H 
ENDBRANCH  31  32
BRANCH  31  36
ATOM     36  C10 <0> d          -2.273   1.509  -3.639  0.00  0.00    -0.061 C 
ATOM     37  H17 <0> d          -2.086   0.449  -3.473  0.00  0.00     0.029 H 
ATOM     38  H18 <0> d          -2.530   1.674  -4.685  0.00  0.00     0.029 H 
ATOM     39  H19 <0> d          -1.379   2.080  -3.390  0.00  0.00     0.029 H 
ENDBRANCH  31  36
BRANCH  31  40
ATOM     40  C11 <0> d          -4.683   1.149  -3.083  0.00  0.00    -0.061 C 
ATOM     41  H20 <0> d          -5.435   1.306  -2.311  0.00  0.00     0.029 H 
ATOM     42  H21 <0> d          -5.079   1.468  -4.047  0.00  0.00     0.029 H 
ATOM     43  H22 <0> d          -4.423   0.091  -3.129  0.00  0.00     0.029 H 
ENDBRANCH  31  40
ENDBRANCH   2  31
TORSDOF 14
