REMARK  10 active torsions:
REMARK  status: ('A' for Active; 'I' for Inactive)
REMARK    1  A    between atoms: C1_1  and  C2_2 
REMARK    2  A    between atoms: C2_2  and  C3_4 
REMARK    3  A    between atoms: C2_2  and  C15_19 
REMARK    4  A    between atoms: C3_4  and  N1_5 
REMARK    5  A    between atoms: N1_5  and  C4_6 
REMARK       I    between atoms: N1_5  and  C12_14 
REMARK    6  A    between atoms: C12_14  and  C13_16 
REMARK    7  A    between atoms: C13_16  and  O2_17 
REMARK    8  A    between atoms: O2_17  and  C14_18 
REMARK    9  A    between atoms: C15_19  and  O4_21 
REMARK   10  A    between atoms: O4_21  and  C16_22 
ROOT
ATOM      1  N1  <0> d          -0.047  -0.095   2.266  0.00  0.00    -0.345 N 
ATOM      2  C12 <0> d           0.228   1.100   2.826  0.00  0.00     0.243 C 
ATOM      3  O1  <0> d          -0.236   1.383   3.910  0.00  0.00    -0.271 OA
ENDROOT
BRANCH   1   4
ATOM      4  C3  <0> d           0.576  -0.468   0.994  0.00  0.00     0.010 C 
ATOM      5  H5  <0> d           0.670   0.416   0.362  0.00  0.00     0.065 H 
ATOM      6  H6  <0> d          -0.043  -1.210   0.490  0.00  0.00     0.065 H 
BRANCH   4   7
ATOM      7  C2  <0> d           1.964  -1.055   1.258  0.00  0.00     0.042 C 
ATOM      8  H1  <0> d           2.546  -0.356   1.859  0.00  0.00     0.057 H 
BRANCH   7   9
ATOM      9  C1  <0> d           1.822  -2.379   2.011  0.00  0.00    -0.063 C 
ATOM     10  H2  <0> d           1.115  -3.022   1.487  0.00  0.00     0.028 H 
ATOM     11  H3  <0> d           2.792  -2.874   2.062  0.00  0.00     0.028 H 
ATOM     12  H4  <0> d           1.459  -2.186   3.020  0.00  0.00     0.028 H 
ENDBRANCH   7   9
BRANCH   7  13
ATOM     13  C15 <0> d           2.666  -1.296  -0.054  0.00  0.00     0.263 C 
ATOM     14  O3  <0> d           2.113  -1.025  -1.093  0.00  0.00    -0.265 OA
BRANCH  13  15
ATOM     15  O4  <0> d           3.905  -1.810  -0.067  0.00  0.00    -0.326 OA
BRANCH  15  16
ATOM     16  C16 <0> d           4.510  -2.012  -1.346  0.00  0.00     0.013 C 
ATOM     17  H27 <0> d           4.584  -1.058  -1.868  0.00  0.00     0.067 H 
ATOM     18  H28 <0> d           5.507  -2.432  -1.214  0.00  0.00     0.067 H 
ATOM     19  H29 <0> d           3.901  -2.700  -1.932  0.00  0.00     0.067 H 
ENDBRANCH  15  16
ENDBRANCH  13  15
ENDBRANCH   7  13
ENDBRANCH   4   7
ENDBRANCH   1   4
BRANCH   1  20
ATOM     20  C4  <0> d          -0.968  -1.020   2.930  0.00  0.00     0.015 C 
ATOM     21  C11 <0> d          -2.366  -0.400   2.980  0.00  0.00    -0.046 C 
ATOM     22  C10 <0> d          -3.381  -1.380   2.389  0.00  0.00    -0.063 C 
ATOM     23  H20 <0> d          -2.630  -0.184   4.016  0.00  0.00     0.036 H 
ATOM     24  H21 <0> d          -2.374   0.524   2.403  0.00  0.00     0.036 H 
ATOM     25  C9  <0> d          -3.662  -2.493   3.400  0.00  0.00    -0.065 C 
ATOM     26  H18 <0> d          -2.976  -1.814   1.474  0.00  0.00     0.033 H 
ATOM     27  H19 <0> d          -4.307  -0.852   2.162  0.00  0.00     0.033 H 
ATOM     28  C8  <0> d          -2.487  -3.473   3.421  0.00  0.00    -0.065 C 
ATOM     29  H16 <0> d          -4.571  -3.022   3.114  0.00  0.00     0.033 H 
ATOM     30  H17 <0> d          -3.792  -2.059   4.391  0.00  0.00     0.033 H 
ATOM     31  C7  <0> d          -1.776  -3.387   4.773  0.00  0.00    -0.065 C 
ATOM     32  H14 <0> d          -1.787  -3.217   2.626  0.00  0.00     0.033 H 
ATOM     33  H15 <0> d          -2.857  -4.487   3.269  0.00  0.00     0.033 H 
ATOM     34  C6  <0> d          -1.611  -1.919   5.170  0.00  0.00    -0.063 C 
ATOM     35  H12 <0> d          -0.795  -3.856   4.697  0.00  0.00     0.033 H 
ATOM     36  H13 <0> d          -2.368  -3.904   5.528  0.00  0.00     0.033 H 
ATOM     37  C5  <0> d          -0.479  -1.294   4.353  0.00  0.00    -0.046 C 
ATOM     38  H10 <0> d          -1.372  -1.855   6.232  0.00  0.00     0.033 H 
ATOM     39  H11 <0> d          -2.540  -1.383   4.974  0.00  0.00     0.033 H 
ATOM     40  H8  <0> d           0.368  -1.979   4.321  0.00  0.00     0.036 H 
ATOM     41  H9  <0> d          -0.170  -0.357   4.817  0.00  0.00     0.036 H 
ATOM     42  H7  <0> d          -1.006  -1.956   2.373  0.00  0.00     0.072 H 
ENDBRANCH   1  20
BRANCH   2  43
ATOM     43  C13 <0> d           1.111   2.085   2.105  0.00  0.00     0.092 C 
ATOM     44  H22 <0> d           2.062   1.611   1.862  0.00  0.00     0.088 H 
ATOM     45  H23 <0> d           0.621   2.408   1.186  0.00  0.00     0.088 H 
BRANCH  43  46
ATOM     46  O2  <0> d           1.345   3.219   2.943  0.00  0.00    -0.387 OA
BRANCH  46  47
ATOM     47  C14 <0> d           2.176   4.219   2.350  0.00  0.00     0.005 C 
ATOM     48  H24 <0> d           3.149   3.788   2.113  0.00  0.00     0.066 H 
ATOM     49  H25 <0> d           1.708   4.585   1.437  0.00  0.00     0.066 H 
ATOM     50  H26 <0> d           2.305   5.045   3.050  0.00  0.00     0.066 H 
ENDBRANCH  46  47
ENDBRANCH  43  46
ENDBRANCH   2  43
TORSDOF 10
