REMARK  9 active torsions:
REMARK  status: ('A' for Active; 'I' for Inactive)
REMARK    1  A    between atoms: C1_1  and  C2_2 
REMARK    2  A    between atoms: C2_2  and  C3_4 
REMARK    3  A    between atoms: C2_2  and  C15_19 
REMARK    4  A    between atoms: C3_4  and  N1_5 
REMARK    5  A    between atoms: N1_5  and  C4_6 
REMARK       I    between atoms: N1_5  and  C7_9 
REMARK    6  A    between atoms: C7_9  and  C8_11 
REMARK    7  A    between atoms: C8_11  and  C9_12 
REMARK    8  A    between atoms: C15_19  and  O3_21 
REMARK    9  A    between atoms: O3_21  and  C16_22 
ROOT
ATOM      1  N1  <0> d          -2.103  -0.151  -1.229  0.00  0.00    -0.346 N 
ATOM      2  C7  <0> d          -2.723   1.045  -1.181  0.00  0.00     0.224 C 
ATOM      3  O1  <0> d          -2.623   1.741  -0.193  0.00  0.00    -0.273 OA
ENDROOT
BRANCH   1   4
ATOM      4  C3  <0> d          -1.390  -0.653  -0.052  0.00  0.00     0.010 C 
ATOM      5  H5  <0> d          -1.419  -1.743  -0.047  0.00  0.00     0.065 H 
ATOM      6  H6  <0> d          -1.866  -0.273   0.852  0.00  0.00     0.065 H 
BRANCH   4   7
ATOM      7  C2  <0> d           0.066  -0.183  -0.098  0.00  0.00     0.042 C 
ATOM      8  H1  <0> d           0.516  -0.489  -1.042  0.00  0.00     0.057 H 
BRANCH   7   9
ATOM      9  C1  <0> d           0.113   1.341   0.021  0.00  0.00    -0.063 C 
ATOM     10  H2  <0> d           1.150   1.676  -0.012  0.00  0.00     0.028 H 
ATOM     11  H3  <0> d          -0.439   1.788  -0.807  0.00  0.00     0.028 H 
ATOM     12  H4  <0> d          -0.337   1.647   0.965  0.00  0.00     0.028 H 
ENDBRANCH   7   9
BRANCH   7  13
ATOM     13  C15 <0> d           0.829  -0.800   1.045  0.00  0.00     0.263 C 
ATOM     14  O2  <0> d           0.267  -1.540   1.818  0.00  0.00    -0.265 OA
BRANCH  13  15
ATOM     15  O3  <0> d           2.134  -0.528   1.206  0.00  0.00    -0.326 OA
BRANCH  15  16
ATOM     16  C16 <0> d           2.795  -1.147   2.311  0.00  0.00     0.013 C 
ATOM     17  H18 <0> d           2.315  -0.840   3.240  0.00  0.00     0.067 H 
ATOM     18  H19 <0> d           2.732  -2.231   2.211  0.00  0.00     0.067 H 
ATOM     19  H20 <0> d           3.842  -0.844   2.325  0.00  0.00     0.067 H 
ENDBRANCH  15  16
ENDBRANCH  13  15
ENDBRANCH   7  13
ENDBRANCH   4   7
ENDBRANCH   1   4
BRANCH   1  20
ATOM     20  C4  <0> d          -2.141  -0.947  -2.458  0.00  0.00     0.015 A 
ATOM     21  C6  <0> d          -0.819  -1.174  -3.194  0.00  0.00    -0.044 A 
ATOM     22  C5  <0> d          -1.475  -2.325  -2.428  0.00  0.00    -0.044 A 
ATOM     23  H10 <0> d          -0.850  -1.212  -4.283  0.00  0.00     0.036 H 
ATOM     24  H11 <0> d           0.079  -0.731  -2.764  0.00  0.00     0.036 H 
ATOM     25  H8  <0> d          -1.009  -2.638  -1.494  0.00  0.00     0.036 H 
ATOM     26  H9  <0> d          -1.938  -3.120  -3.013  0.00  0.00     0.036 H 
ATOM     27  H7  <0> d          -3.041  -0.836  -3.062  0.00  0.00     0.072 H 
ENDBRANCH   1  20
BRANCH   2  28
ATOM     28  C8  <0> d          -3.542   1.516  -2.355  0.00  0.00     0.033 C 
ATOM     29  H12 <0> d          -2.928   1.500  -3.256  0.00  0.00     0.054 H 
ATOM     30  H13 <0> d          -4.400   0.857  -2.488  0.00  0.00     0.054 H 
BRANCH  28  31
ATOM     31  C9  <0> d          -4.023   2.922  -2.100  0.00  0.00    -0.049 A 
ATOM     32  C14 <0> d          -3.253   3.998  -2.500  0.00  0.00    -0.073 A 
ATOM     33  C13 <0> d          -3.695   5.287  -2.271  0.00  0.00    -0.045 A 
ATOM     34  H17 <0> d          -2.308   3.832  -2.995  0.00  0.00     0.084 H 
ATOM     35  C12 <0> d          -4.905   5.500  -1.632  0.00  0.00     0.116 A 
ATOM     36  H16 <0> d          -3.096   6.128  -2.587  0.00  0.00     0.088 H 
ATOM     37  C11 <0> d          -5.672   4.421  -1.227  0.00  0.00    -0.045 A 
ATOM     38  F1  <0> d          -5.336   6.760  -1.403  0.00  0.00    -0.206 F 
ATOM     39  C10 <0> d          -5.231   3.133  -1.462  0.00  0.00    -0.073 A 
ATOM     40  H15 <0> d          -6.616   4.586  -0.729  0.00  0.00     0.088 H 
ATOM     41  H14 <0> d          -5.829   2.291  -1.147  0.00  0.00     0.084 H 
ENDBRANCH  28  31
ENDBRANCH   2  28
TORSDOF 9
