REMARK  7 active torsions:
REMARK  status: ('A' for Active; 'I' for Inactive)
REMARK    1  A    between atoms: C1_1  and  O1_2 
REMARK    2  A    between atoms: O1_2  and  C2_3 
REMARK    3  A    between atoms: C4_5  and  C8_10 
REMARK    4  A    between atoms: C7_8  and  N1_9 
REMARK    5  A    between atoms: N3_18  and  C15_19 
REMARK    6  A    between atoms: C15_19  and  C16_20 
REMARK    7  A    between atoms: C16_20  and  O2_21 
ROOT
ATOM      1  C8  <0> d           2.388   0.347  -4.225  0.00  0.00     0.141 A 
ATOM      2  N2  <0> d           2.106   1.604  -4.467  0.00  0.00    -0.228 NA
ATOM      3  C9  <0> d           2.851   2.046  -5.510  0.00  0.00     0.089 A 
ATOM      4  C10 <0> d           2.946   3.276  -6.169  0.00  0.00    -0.016 A 
ATOM      5  C11 <0> d           3.818   3.420  -7.225  0.00  0.00     0.118 A 
ATOM      6  C12 <0> d           4.605   2.352  -7.641  0.00  0.00    -0.043 A 
ATOM      7  C13 <0> d           4.522   1.133  -7.002  0.00  0.00    -0.052 A 
ATOM      8  C14 <0> d           3.649   0.970  -5.936  0.00  0.00     0.065 A 
ATOM      9  N3  <0> d           3.342  -0.091  -5.104  0.00  0.00    -0.327 N 
ATOM     10  F1  <0> d           3.910   4.608  -7.862  0.00  0.00    -0.206 F 
ATOM     11  H9  <0> d           2.337   4.109  -5.851  0.00  0.00     0.091 H 
ATOM     12  H10 <0> d           5.285   2.478  -8.470  0.00  0.00     0.088 H 
ATOM     13  H11 <0> d           5.135   0.308  -7.331  0.00  0.00     0.087 H 
ENDROOT
BRANCH   1  14
ATOM     14  C4  <0> d           1.773  -0.472  -3.160  0.00  0.00     0.013 A 
ATOM     15  C3  <0> d           1.170   0.146  -2.062  0.00  0.00    -0.035 A 
ATOM     16  C2  <0> d           0.596  -0.623  -1.068  0.00  0.00     0.095 A 
ATOM     17  H4  <0> d           1.152   1.224  -1.991  0.00  0.00     0.089 H 
ATOM     18  C7  <0> d           0.625  -2.014  -1.160  0.00  0.00     0.059 A 
ATOM     19  C6  <0> d           1.220  -2.629  -2.255  0.00  0.00    -0.054 A 
ATOM     20  C5  <0> d           1.794  -1.865  -3.249  0.00  0.00    -0.067 A 
ATOM     21  H6  <0> d           1.236  -3.706  -2.326  0.00  0.00     0.087 H 
ATOM     22  H5  <0> d           2.260  -2.345  -4.097  0.00  0.00     0.085 H 
BRANCH  16  23
ATOM     23  O1  <0> d           0.008  -0.023   0.002  0.00  0.00    -0.354 OA
BRANCH  23  24
ATOM     24  C1  <0> d           0.016   1.405   0.030  0.00  0.00     0.010 C 
ATOM     25  H1  <0> d           1.045   1.764   0.023  0.00  0.00     0.066 H 
ATOM     26  H2  <0> d          -0.509   1.789  -0.845  0.00  0.00     0.066 H 
ATOM     27  H3  <0> d          -0.483   1.753   0.935  0.00  0.00     0.066 H 
ENDBRANCH  23  24
ENDBRANCH  16  23
BRANCH  18  28
ATOM     28  N1  <0> d           0.049  -2.791  -0.153  0.00  0.00    -0.397 N 
ATOM     29  H7  <0> d          -0.369  -2.363   0.610  0.00  0.00     0.156 HD
ATOM     30  H8  <0> d           0.069  -3.759  -0.216  0.00  0.00     0.156 HD
ENDBRANCH  18  28
ENDBRANCH   1  14
BRANCH   9  31
ATOM     31  C15 <0> d           3.926  -1.434  -5.155  0.00  0.00     0.021 C 
ATOM     32  H12 <0> d           4.972  -1.364  -5.453  0.00  0.00     0.068 H 
ATOM     33  H13 <0> d           3.858  -1.897  -4.171  0.00  0.00     0.068 H 
BRANCH  31  34
ATOM     34  C16 <0> d           3.162  -2.284  -6.172  0.00  0.00     0.032 C 
ATOM     35  H14 <0> d           2.115  -2.354  -5.875  0.00  0.00     0.076 H 
ATOM     36  H15 <0> d           3.229  -1.821  -7.157  0.00  0.00     0.076 H 
BRANCH  34  37
ATOM     37  O2  <0> d           3.731  -3.594  -6.222  0.00  0.00    -0.399 OA
ATOM     38  H16 <0> d           3.296  -4.188  -6.848  0.00  0.00     0.209 HD
ENDBRANCH  34  37
ENDBRANCH  31  34
ENDBRANCH   9  31
TORSDOF 7
