REMARK  14 active torsions:
REMARK  status: ('A' for Active; 'I' for Inactive)
REMARK    1  A    between atoms: C1_1  and  C2_2 
REMARK    2  A    between atoms: C2_2  and  C3_4 
REMARK    3  A    between atoms: C2_2  and  C13_16 
REMARK    4  A    between atoms: C3_4  and  N1_5 
REMARK    5  A    between atoms: N1_5  and  C4_6 
REMARK       I    between atoms: N1_5  and  C8_10 
REMARK    6  A    between atoms: C4_6  and  C5_7 
REMARK    7  A    between atoms: C5_7  and  C6_8 
REMARK    8  A    between atoms: C5_7  and  C7_9 
REMARK    9  A    between atoms: C8_10  and  C9_12 
REMARK   10  A    between atoms: C9_12  and  C10_13 
REMARK   11  A    between atoms: C9_12  and  C11_14 
REMARK   12  A    between atoms: C9_12  and  C12_15 
REMARK   13  A    between atoms: C13_16  and  O3_18 
REMARK   14  A    between atoms: O3_18  and  C14_19 
ROOT
ATOM      1  N1  <0> d           0.814  -0.034   3.026  0.00  0.00    -0.350 N 
ATOM      2  C8  <0> d           0.826   1.290   3.276  0.00  0.00     0.227 C 
ATOM      3  O1  <0> d           1.607   2.011   2.691  0.00  0.00    -0.273 OA
ENDROOT
BRANCH   1   4
ATOM      4  C3  <0> d           1.743  -0.603   2.047  0.00  0.00     0.009 C 
ATOM      5  H5  <0> d           1.985  -1.628   2.329  0.00  0.00     0.065 H 
ATOM      6  H6  <0> d           2.655  -0.007   2.022  0.00  0.00     0.065 H 
BRANCH   4   7
ATOM      7  C2  <0> d           1.091  -0.595   0.662  0.00  0.00     0.042 C 
ATOM      8  H1  <0> d           0.135  -1.116   0.708  0.00  0.00     0.057 H 
BRANCH   7   9
ATOM      9  C1  <0> d           0.865   0.850   0.213  0.00  0.00    -0.063 C 
ATOM     10  H2  <0> d           1.821   1.370   0.168  0.00  0.00     0.028 H 
ATOM     11  H3  <0> d           0.401   0.855  -0.773  0.00  0.00     0.028 H 
ATOM     12  H4  <0> d           0.211   1.353   0.925  0.00  0.00     0.028 H 
ENDBRANCH   7   9
BRANCH   7  13
ATOM     13  C13 <0> d           1.996  -1.291  -0.322  0.00  0.00     0.263 C 
ATOM     14  O2  <0> d           3.053  -1.747   0.046  0.00  0.00    -0.265 OA
BRANCH  13  15
ATOM     15  O3  <0> d           1.627  -1.405  -1.608  0.00  0.00    -0.326 OA
BRANCH  15  16
ATOM     16  C14 <0> d           2.533  -2.077  -2.485  0.00  0.00     0.013 C 
ATOM     17  H25 <0> d           3.486  -1.547  -2.500  0.00  0.00     0.067 H 
ATOM     18  H26 <0> d           2.691  -3.097  -2.134  0.00  0.00     0.067 H 
ATOM     19  H27 <0> d           2.115  -2.100  -3.492  0.00  0.00     0.067 H 
ENDBRANCH  15  16
ENDBRANCH  13  15
ENDBRANCH   7  13
ENDBRANCH   4   7
ENDBRANCH   1   4
BRANCH   1  20
ATOM     20  C4  <0> d          -0.128  -0.904   3.734  0.00  0.00     0.000 C 
ATOM     21  H7  <0> d          -0.996  -0.323   4.046  0.00  0.00     0.065 H 
ATOM     22  H8  <0> d          -0.449  -1.708   3.071  0.00  0.00     0.065 H 
BRANCH  20  23
ATOM     23  C5  <0> d           0.556  -1.501   4.966  0.00  0.00    -0.045 C 
ATOM     24  H9  <0> d           0.858  -0.698   5.639  0.00  0.00     0.041 H 
BRANCH  23  25
ATOM     25  C6  <0> d          -0.418  -2.433   5.689  0.00  0.00    -0.072 C 
ATOM     26  H10 <0> d          -0.720  -3.236   5.016  0.00  0.00     0.028 H 
ATOM     27  H11 <0> d           0.069  -2.859   6.566  0.00  0.00     0.028 H 
ATOM     28  H12 <0> d          -1.298  -1.870   5.999  0.00  0.00     0.028 H 
ENDBRANCH  23  25
BRANCH  23  29
ATOM     29  C7  <0> d           1.791  -2.292   4.530  0.00  0.00    -0.072 C 
ATOM     30  H13 <0> d           2.278  -2.718   5.407  0.00  0.00     0.028 H 
ATOM     31  H14 <0> d           1.489  -3.095   3.857  0.00  0.00     0.028 H 
ATOM     32  H15 <0> d           2.485  -1.628   4.015  0.00  0.00     0.028 H 
ENDBRANCH  23  29
ENDBRANCH  20  23
ENDBRANCH   1  20
BRANCH   2  33
ATOM     33  C9  <0> d          -0.131   1.876   4.282  0.00  0.00     0.030 C 
BRANCH  33  34
ATOM     34  C10 <0> d           0.228   3.342   4.534  0.00  0.00    -0.061 C 
ATOM     35  H16 <0> d           0.159   3.899   3.600  0.00  0.00     0.029 H 
ATOM     36  H17 <0> d          -0.464   3.766   5.262  0.00  0.00     0.029 H 
ATOM     37  H18 <0> d           1.245   3.405   4.921  0.00  0.00     0.029 H 
ENDBRANCH  33  34
BRANCH  33  38
ATOM     38  C11 <0> d          -1.559   1.787   3.739  0.00  0.00    -0.061 C 
ATOM     39  H19 <0> d          -1.775   0.758   3.453  0.00  0.00     0.029 H 
ATOM     40  H20 <0> d          -2.261   2.105   4.510  0.00  0.00     0.029 H 
ATOM     41  H21 <0> d          -1.658   2.435   2.868  0.00  0.00     0.029 H 
ENDBRANCH  33  38
BRANCH  33  42
ATOM     42  C12 <0> d          -0.034   1.095   5.593  0.00  0.00    -0.061 C 
ATOM     43  H22 <0> d           1.014   0.922   5.837  0.00  0.00     0.029 H 
ATOM     44  H23 <0> d          -0.504   1.667   6.393  0.00  0.00     0.029 H 
ATOM     45  H24 <0> d          -0.544   0.137   5.484  0.00  0.00     0.029 H 
ENDBRANCH  33  42
ENDBRANCH   2  33
TORSDOF 14
