REMARK  6 active torsions:
REMARK  status: ('A' for Active; 'I' for Inactive)
REMARK    1  A    between atoms: C4_4  and  C7_7 
REMARK    2  A    between atoms: C7_7  and  O1_8 
REMARK    3  A    between atoms: O1_8  and  C8_9 
REMARK    4  A    between atoms: N1_17  and  C17_22 
REMARK    5  A    between atoms: C17_22  and  C18_23 
REMARK    6  A    between atoms: C18_23  and  O3_24 
ROOT
ATOM      1  C8  <0> d           5.316  -1.604   1.466  0.00  0.00     0.085 A 
ATOM      2  C9  <0> d           6.048  -2.007   0.359  0.00  0.00    -0.050 A 
ATOM      3  C10 <0> d           7.244  -2.677   0.522  0.00  0.00    -0.080 A 
ATOM      4  C11 <0> d           7.725  -2.951   1.793  0.00  0.00    -0.073 A 
ATOM      5  C12 <0> d           7.011  -2.558   2.900  0.00  0.00    -0.003 A 
ATOM      6  C13 <0> d           5.801  -1.873   2.753  0.00  0.00     0.074 A 
ATOM      7  C14 <0> d           5.272  -1.577   4.095  0.00  0.00     0.258 A 
ATOM      8  O2  <0> d           4.229  -0.993   4.317  0.00  0.00    -0.267 OA
ATOM      9  N1  <0> d           6.107  -2.043   5.040  0.00  0.00    -0.325 N 
ATOM     10  C15 <0> d           7.245  -2.696   4.383  0.00  0.00     0.125 A 
ATOM     11  H1  <0> d           7.296  -3.749   4.658  0.00  0.00     0.104 H 
ATOM     12  C16 <0> d           8.492  -2.012   4.765  0.00  0.00     0.089 C 
ATOM     13  N2  <0> d           9.454  -1.484   5.059  0.00  0.00    -0.195 NA
ATOM     14  H9  <0> d           5.680  -1.797  -0.635  0.00  0.00     0.087 H 
ATOM     15  H10 <0> d           7.808  -2.989  -0.345  0.00  0.00     0.083 H 
ATOM     16  H11 <0> d           8.661  -3.475   1.914  0.00  0.00     0.084 H 
ENDROOT
BRANCH   9  17
ATOM     17  C17 <0> d           5.906  -1.930   6.487  0.00  0.00     0.019 C 
ATOM     18  H12 <0> d           6.875  -1.882   6.985  0.00  0.00     0.067 H 
ATOM     19  H13 <0> d           5.340  -1.024   6.705  0.00  0.00     0.067 H 
BRANCH  17  20
ATOM     20  C18 <0> d           5.132  -3.149   6.992  0.00  0.00     0.032 C 
ATOM     21  H14 <0> d           4.906  -3.023   8.050  0.00  0.00     0.076 H 
ATOM     22  H15 <0> d           4.203  -3.248   6.431  0.00  0.00     0.076 H 
BRANCH  20  23
ATOM     23  O3  <0> d           5.925  -4.325   6.811  0.00  0.00    -0.399 OA
ATOM     24  H16 <0> d           5.495  -5.138   7.110  0.00  0.00     0.209 HD
ENDBRANCH  20  23
ENDBRANCH  17  20
ENDBRANCH   9  17
BRANCH   1  25
ATOM     25  O1  <0> d           4.141  -0.946   1.304  0.00  0.00    -0.346 OA
BRANCH  25  26
ATOM     26  C7  <0> d           3.711  -0.707  -0.038  0.00  0.00     0.050 C 
ATOM     27  H7  <0> d           3.588  -1.659  -0.555  0.00  0.00     0.082 H 
ATOM     28  H8  <0> d           4.457  -0.105  -0.556  0.00  0.00     0.082 H 
BRANCH  26  29
ATOM     29  C4  <0> d           2.396   0.029  -0.020  0.00  0.00    -0.034 A 
ATOM     30  C3  <0> d           2.377   1.411  -0.013  0.00  0.00    -0.075 A 
ATOM     31  C2  <0> d           1.171   2.086   0.002  0.00  0.00    -0.082 A 
ATOM     32  H4  <0> d           3.305   1.963  -0.020  0.00  0.00     0.084 H 
ATOM     33  C1  <0> d          -0.017   1.378   0.010  0.00  0.00    -0.083 A 
ATOM     34  H3  <0> d           1.156   3.165   0.008  0.00  0.00     0.083 H 
ATOM     35  C6  <0> d           0.002  -0.004   0.002  0.00  0.00    -0.082 A 
ATOM     36  H2  <0> d          -0.959   1.905   0.026  0.00  0.00     0.083 H 
ATOM     37  C5  <0> d           1.208  -0.679  -0.012  0.00  0.00    -0.075 A 
ATOM     38  H6  <0> d          -0.926  -0.557   0.008  0.00  0.00     0.083 H 
ATOM     39  H5  <0> d           1.223  -1.759  -0.018  0.00  0.00     0.084 H 
ENDBRANCH  26  29
ENDBRANCH  25  26
ENDBRANCH   1  25
TORSDOF 6
