REMARK  9 active torsions:
REMARK  status: ('A' for Active; 'I' for Inactive)
REMARK    1  A    between atoms: C1_1  and  O1_2 
REMARK    2  A    between atoms: O1_2  and  C2_3 
REMARK    3  A    between atoms: C2_3  and  C3_5 
REMARK    4  A    between atoms: C3_5  and  C4_6 
REMARK    5  A    between atoms: C4_6  and  N1_7 
REMARK    6  A    between atoms: N1_7  and  C5_8 
REMARK       I    between atoms: N1_7  and  C7_11 
REMARK    7  A    between atoms: C5_8  and  C6_9 
REMARK    8  A    between atoms: C6_9  and  O3_10 
REMARK    9  A    between atoms: C7_11  and  C8_13 
ROOT
ATOM      1  N1  <0> d          -2.687  -4.036   0.024  0.00  0.00    -0.345 N 
ATOM      2  C7  <0> d          -2.793  -4.695  -1.147  0.00  0.00     0.257 C 
ATOM      3  O4  <0> d          -2.991  -5.894  -1.154  0.00  0.00    -0.267 OA
ENDROOT
BRANCH   1   4
ATOM      4  C4  <0> d          -2.548  -2.577   0.034  0.00  0.00     0.006 C 
ATOM      5  H6  <0> d          -2.993  -2.176   0.944  0.00  0.00     0.065 H 
ATOM      6  H7  <0> d          -3.057  -2.158  -0.834  0.00  0.00     0.065 H 
BRANCH   4   7
ATOM      7  C3  <0> d          -1.065  -2.206  -0.015  0.00  0.00     0.031 C 
ATOM      8  H4  <0> d          -0.620  -2.608  -0.926  0.00  0.00     0.050 H 
ATOM      9  H5  <0> d          -0.556  -2.626   0.853  0.00  0.00     0.050 H 
BRANCH   7  10
ATOM     10  C2  <0> d          -0.922  -0.706  -0.005  0.00  0.00     0.259 C 
ATOM     11  O2  <0> d          -1.905  -0.006   0.037  0.00  0.00    -0.265 OA
BRANCH  10  12
ATOM     12  O1  <0> d           0.299  -0.148  -0.043  0.00  0.00    -0.326 OA
BRANCH  12  13
ATOM     13  C1  <0> d           0.360   1.280  -0.031  0.00  0.00     0.013 C 
ATOM     14  H1  <0> d           1.401   1.599  -0.065  0.00  0.00     0.067 H 
ATOM     15  H2  <0> d          -0.170   1.673  -0.899  0.00  0.00     0.067 H 
ATOM     16  H3  <0> d          -0.106   1.655   0.880  0.00  0.00     0.067 H 
ENDBRANCH  12  13
ENDBRANCH  10  12
ENDBRANCH   7  10
ENDBRANCH   4   7
ENDBRANCH   1   4
BRANCH   1  17
ATOM     17  C5  <0> d          -2.712  -4.778   1.287  0.00  0.00     0.017 C 
ATOM     18  H8  <0> d          -2.383  -5.803   1.113  0.00  0.00     0.067 H 
ATOM     19  H9  <0> d          -2.043  -4.299   2.002  0.00  0.00     0.067 H 
BRANCH  17  20
ATOM     20  C6  <0> d          -4.136  -4.787   1.846  0.00  0.00     0.032 C 
ATOM     21  H10 <0> d          -4.138  -5.261   2.827  0.00  0.00     0.076 H 
ATOM     22  H11 <0> d          -4.497  -3.762   1.937  0.00  0.00     0.076 H 
BRANCH  20  23
ATOM     23  O3  <0> d          -4.990  -5.516   0.963  0.00  0.00    -0.399 OA
ATOM     24  H12 <0> d          -5.910  -5.563   1.255  0.00  0.00     0.209 HD
ENDBRANCH  20  23
ENDBRANCH  17  20
ENDBRANCH   1  17
BRANCH   2  25
ATOM     25  C8  <0> d          -2.668  -3.960  -2.421  0.00  0.00     0.074 A 
ATOM     26  C13 <0> d          -1.675  -4.312  -3.340  0.00  0.00     0.173 A 
ATOM     27  C12 <0> d          -1.568  -3.622  -4.535  0.00  0.00     0.194 A 
ATOM     28  F1  <0> d          -0.826  -5.327  -3.065  0.00  0.00    -0.202 F 
ATOM     29  C11 <0> d          -2.436  -2.578  -4.814  0.00  0.00     0.158 A 
ATOM     30  F2  <0> d          -0.613  -3.963  -5.428  0.00  0.00    -0.200 F 
ATOM     31  C10 <0> d          -3.419  -2.223  -3.901  0.00  0.00    -0.041 A 
ATOM     32  F3  <0> d          -2.325  -1.903  -5.979  0.00  0.00    -0.203 F 
ATOM     33  C9  <0> d          -3.539  -2.906  -2.711  0.00  0.00    -0.062 A 
ATOM     34  H14 <0> d          -4.093  -1.409  -4.125  0.00  0.00     0.088 H 
ATOM     35  H13 <0> d          -4.306  -2.628  -2.003  0.00  0.00     0.085 H 
ENDBRANCH   2  25
TORSDOF 9
