REMARK  4 active torsions:
REMARK  status: ('A' for Active; 'I' for Inactive)
REMARK    1  A    between atoms: C4_4  and  C7_7 
REMARK    2  A    between atoms: C7_7  and  N1_8 
REMARK    3  A    between atoms: C14_16  and  C15_17 
REMARK    4  A    between atoms: C15_17  and  C16_18 
ROOT
ATOM      1  N1  <0> d           4.152  -0.952   1.338  0.00  0.00    -0.328 N 
ATOM      2  C8  <0> d           4.937  -0.116   2.108  0.00  0.00     0.065 A 
ATOM      3  C9  <0> d           5.530   1.120   1.891  0.00  0.00    -0.053 A 
ATOM      4  C10 <0> d           6.275   1.708   2.891  0.00  0.00    -0.060 A 
ATOM      5  C11 <0> d           6.436   1.072   4.115  0.00  0.00     0.036 A 
ATOM      6  C12 <0> d           5.854  -0.154   4.347  0.00  0.00    -0.032 A 
ATOM      7  C13 <0> d           5.096  -0.764   3.344  0.00  0.00     0.087 A 
ATOM      8  N2  <0> d           4.416  -1.937   3.267  0.00  0.00    -0.233 NA
ATOM      9  C14 <0> d           3.859  -2.043   2.096  0.00  0.00     0.117 A 
ATOM     10 Cl1  <0> d           7.378   1.828   5.362  0.00  0.00    -0.084 Cl
ATOM     11  H8  <0> d           5.409   1.620   0.941  0.00  0.00     0.087 H 
ATOM     12  H9  <0> d           6.736   2.670   2.721  0.00  0.00     0.086 H 
ATOM     13  H10 <0> d           5.984  -0.643   5.302  0.00  0.00     0.089 H 
ENDROOT
BRANCH   1  14
ATOM     14  C7  <0> d           3.711  -0.707  -0.038  0.00  0.00     0.025 C 
ATOM     15  H6  <0> d           3.588  -1.659  -0.555  0.00  0.00     0.072 H 
ATOM     16  H7  <0> d           4.457  -0.105  -0.556  0.00  0.00     0.072 H 
BRANCH  14  17
ATOM     17  C4  <0> d           2.396   0.029  -0.020  0.00  0.00    -0.040 A 
ATOM     18  C3  <0> d           2.377   1.411  -0.013  0.00  0.00    -0.075 A 
ATOM     19  C2  <0> d           1.171   2.086   0.002  0.00  0.00    -0.082 A 
ATOM     20  H3  <0> d           3.305   1.963  -0.020  0.00  0.00     0.084 H 
ATOM     21  C1  <0> d          -0.017   1.378   0.010  0.00  0.00    -0.083 A 
ATOM     22  H2  <0> d           1.156   3.165   0.008  0.00  0.00     0.083 H 
ATOM     23  C6  <0> d           0.002  -0.004   0.002  0.00  0.00    -0.082 A 
ATOM     24  H1  <0> d          -0.959   1.905   0.026  0.00  0.00     0.083 H 
ATOM     25  C5  <0> d           1.208  -0.679  -0.012  0.00  0.00    -0.075 A 
ATOM     26  H5  <0> d          -0.926  -0.557   0.008  0.00  0.00     0.083 H 
ATOM     27  H4  <0> d           1.223  -1.759  -0.018  0.00  0.00     0.084 H 
ENDBRANCH  14  17
ENDBRANCH   1  14
BRANCH   9  28
ATOM     28  C15 <0> d           3.016  -3.208   1.643  0.00  0.00     0.070 C 
ATOM     29  H11 <0> d           2.506  -3.643   2.503  0.00  0.00     0.060 H 
ATOM     30  H12 <0> d           2.278  -2.863   0.919  0.00  0.00     0.060 H 
BRANCH  28  31
ATOM     31  C16 <0> d           3.899  -4.248   1.004  0.00  0.00     0.179 C 
ATOM     32  O1  <0> d           5.101  -4.061   0.922  0.00  0.00    -0.648 OA
ATOM     33  O2  <0> d           3.412  -5.277   0.567  0.00  0.00    -0.648 OA
ENDBRANCH  28  31
ENDBRANCH   9  28
TORSDOF 4
