REMARK  10 active torsions:
REMARK  status: ('A' for Active; 'I' for Inactive)
REMARK    1  A    between atoms: C1_1  and  C2_2 
REMARK    2  A    between atoms: C2_2  and  C3_4 
REMARK    3  A    between atoms: C2_2  and  C13_17 
REMARK    4  A    between atoms: C3_4  and  N1_5 
REMARK    5  A    between atoms: N1_5  and  C4_6 
REMARK       I    between atoms: N1_5  and  C10_12 
REMARK    6  A    between atoms: C10_12  and  C11_14 
REMARK    7  A    between atoms: C11_14  and  O2_15 
REMARK    8  A    between atoms: O2_15  and  C12_16 
REMARK    9  A    between atoms: C13_17  and  O4_19 
REMARK   10  A    between atoms: O4_19  and  C14_20 
ROOT
ATOM      1  N1  <0> d          -2.097  -0.159  -1.221  0.00  0.00    -0.345 N 
ATOM      2  C10 <0> d          -2.791   0.982  -1.401  0.00  0.00     0.243 C 
ATOM      3  O1  <0> d          -2.816   1.822  -0.526  0.00  0.00    -0.271 OA
ENDROOT
BRANCH   1   4
ATOM      4  C3  <0> d          -1.458  -0.431   0.069  0.00  0.00     0.010 C 
ATOM      5  H5  <0> d          -1.422  -1.508   0.236  0.00  0.00     0.065 H 
ATOM      6  H6  <0> d          -2.031   0.042   0.866  0.00  0.00     0.065 H 
BRANCH   4   7
ATOM      7  C2  <0> d          -0.035   0.132   0.061  0.00  0.00     0.042 C 
ATOM      8  H1  <0> d           0.512  -0.275  -0.790  0.00  0.00     0.057 H 
BRANCH   7   9
ATOM      9  C1  <0> d          -0.090   1.657  -0.049  0.00  0.00    -0.063 C 
ATOM     10  H2  <0> d           0.923   2.057  -0.054  0.00  0.00     0.028 H 
ATOM     11  H3  <0> d          -0.596   1.936  -0.973  0.00  0.00     0.028 H 
ATOM     12  H4  <0> d          -0.637   2.063   0.802  0.00  0.00     0.028 H 
ENDBRANCH   7   9
BRANCH   7  13
ATOM     13  C13 <0> d           0.664  -0.255   1.339  0.00  0.00     0.263 C 
ATOM     14  O3  <0> d           0.085  -0.913   2.170  0.00  0.00    -0.265 OA
BRANCH  13  15
ATOM     15  O4  <0> d           1.932   0.132   1.554  0.00  0.00    -0.326 OA
BRANCH  15  16
ATOM     16  C14 <0> d           2.533  -0.270   2.786  0.00  0.00     0.013 C 
ATOM     17  H23 <0> d           1.958   0.135   3.619  0.00  0.00     0.067 H 
ATOM     18  H24 <0> d           2.544  -1.358   2.847  0.00  0.00     0.067 H 
ATOM     19  H25 <0> d           3.554   0.108   2.832  0.00  0.00     0.067 H 
ENDBRANCH  15  16
ENDBRANCH  13  15
ENDBRANCH   7  13
ENDBRANCH   4   7
ENDBRANCH   1   4
BRANCH   1  20
ATOM     20  C4  <0> d          -1.983  -1.127  -2.314  0.00  0.00     0.015 C 
ATOM     21  C9  <0> d          -0.520  -1.235  -2.749  0.00  0.00    -0.046 C 
ATOM     22  C8  <0> d          -0.400  -2.246  -3.891  0.00  0.00    -0.063 C 
ATOM     23  H16 <0> d          -0.169  -0.260  -3.088  0.00  0.00     0.036 H 
ATOM     24  H17 <0> d           0.086  -1.566  -1.906  0.00  0.00     0.036 H 
ATOM     25  C7  <0> d          -0.892  -3.614  -3.415  0.00  0.00    -0.065 C 
ATOM     26  H14 <0> d           0.642  -2.322  -4.201  0.00  0.00     0.033 H 
ATOM     27  H15 <0> d          -1.006  -1.915  -4.734  0.00  0.00     0.033 H 
ATOM     28  C6  <0> d          -2.356  -3.506  -2.980  0.00  0.00    -0.063 C 
ATOM     29  H12 <0> d          -0.286  -3.945  -2.571  0.00  0.00     0.033 H 
ATOM     30  H13 <0> d          -0.807  -4.334  -4.228  0.00  0.00     0.033 H 
ATOM     31  C5  <0> d          -2.475  -2.495  -1.838  0.00  0.00    -0.046 C 
ATOM     32  H10 <0> d          -2.706  -4.481  -2.641  0.00  0.00     0.033 H 
ATOM     33  H11 <0> d          -2.962  -3.175  -3.824  0.00  0.00     0.033 H 
ATOM     34  H8  <0> d          -1.869  -2.826  -0.995  0.00  0.00     0.036 H 
ATOM     35  H9  <0> d          -3.518  -2.418  -1.529  0.00  0.00     0.036 H 
ATOM     36  H7  <0> d          -2.589  -0.796  -3.158  0.00  0.00     0.072 H 
ENDBRANCH   1  20
BRANCH   2  37
ATOM     37  C11 <0> d          -3.536   1.216  -2.690  0.00  0.00     0.092 C 
ATOM     38  H18 <0> d          -2.850   1.113  -3.531  0.00  0.00     0.088 H 
ATOM     39  H19 <0> d          -4.338   0.483  -2.784  0.00  0.00     0.088 H 
BRANCH  37  40
ATOM     40  O2  <0> d          -4.092   2.532  -2.688  0.00  0.00    -0.387 OA
BRANCH  40  41
ATOM     41  C12 <0> d          -4.823   2.857  -3.872  0.00  0.00     0.005 C 
ATOM     42  H20 <0> d          -4.163   2.788  -4.737  0.00  0.00     0.066 H 
ATOM     43  H21 <0> d          -5.652   2.158  -3.990  0.00  0.00     0.066 H 
ATOM     44  H22 <0> d          -5.213   3.871  -3.792  0.00  0.00     0.066 H 
ENDBRANCH  40  41
ENDBRANCH  37  40
ENDBRANCH   2  37
TORSDOF 10
