REMARK  10 active torsions:
REMARK  status: ('A' for Active; 'I' for Inactive)
REMARK    1  A    between atoms: C1_1  and  C2_2 
REMARK    2  A    between atoms: C2_2  and  C3_3 
REMARK    3  A    between atoms: C3_3  and  C4_5 
REMARK    4  A    between atoms: C3_3  and  N1_6 
REMARK    5  A    between atoms: N1_6  and  C5_7 
REMARK       I    between atoms: N1_6  and  C9_13 
REMARK    6  A    between atoms: C5_7  and  C6_8 
REMARK    7  A    between atoms: C6_8  and  C7_9 
REMARK    8  A    between atoms: C7_9  and  O2_11 
REMARK    9  A    between atoms: O2_11  and  C8_12 
REMARK   10  A    between atoms: C9_13  and  C10_15 
ROOT
ATOM      1  N1  <0> d           2.121  -0.676   0.064  0.00  0.00    -0.343 N 
ATOM      2  C9  <0> d           1.482  -0.448  -1.101  0.00  0.00     0.257 C 
ATOM      3  O3  <0> d           1.901   0.397  -1.868  0.00  0.00    -0.267 OA
ENDROOT
BRANCH   1   4
ATOM      4  C3  <0> d           1.351  -0.861   1.297  0.00  0.00     0.011 C 
ATOM      5  H1  <0> d           1.998  -0.689   2.158  0.00  0.00     0.072 H 
BRANCH   4   6
ATOM      6  C2  <0> d           0.188   0.132   1.326  0.00  0.00    -0.050 C 
ATOM      7  H5  <0> d          -0.565  -0.211   2.035  0.00  0.00     0.035 H 
ATOM      8  H6  <0> d          -0.254   0.203   0.332  0.00  0.00     0.035 H 
BRANCH   6   9
ATOM      9  C1  <0> d           0.703   1.508   1.754  0.00  0.00    -0.075 C 
ATOM     10  H2  <0> d           1.456   1.851   1.045  0.00  0.00     0.027 H 
ATOM     11  H3  <0> d          -0.126   2.215   1.775  0.00  0.00     0.027 H 
ATOM     12  H4  <0> d           1.145   1.437   2.748  0.00  0.00     0.027 H 
ENDBRANCH   6   9
ENDBRANCH   4   6
BRANCH   4  13
ATOM     13  C4  <0> d           0.804  -2.289   1.347  0.00  0.00    -0.057 C 
ATOM     14  H7  <0> d           0.901  -2.751   0.364  0.00  0.00     0.030 H 
ATOM     15  H8  <0> d           1.368  -2.869   2.078  0.00  0.00     0.030 H 
ATOM     16  H9  <0> d          -0.247  -2.266   1.635  0.00  0.00     0.030 H 
ENDBRANCH   4  13
ENDBRANCH   1   4
BRANCH   1  17
ATOM     17  C5  <0> d           3.584  -0.740   0.097  0.00  0.00     0.007 C 
ATOM     18  H10 <0> d           3.993  -0.098  -0.683  0.00  0.00     0.065 H 
ATOM     19  H11 <0> d           3.940  -0.402   1.070  0.00  0.00     0.065 H 
BRANCH  17  20
ATOM     20  C6  <0> d           4.038  -2.182  -0.139  0.00  0.00     0.031 C 
ATOM     21  H12 <0> d           3.628  -2.824   0.641  0.00  0.00     0.050 H 
ATOM     22  H13 <0> d           3.681  -2.520  -1.112  0.00  0.00     0.050 H 
BRANCH  20  23
ATOM     23  C7  <0> d           5.543  -2.247  -0.105  0.00  0.00     0.259 C 
ATOM     24  O1  <0> d           6.187  -1.243   0.089  0.00  0.00    -0.265 OA
BRANCH  23  25
ATOM     25  O2  <0> d           6.168  -3.420  -0.289  0.00  0.00    -0.326 OA
BRANCH  25  26
ATOM     26  C8  <0> d           7.597  -3.408  -0.244  0.00  0.00     0.013 C 
ATOM     27  H14 <0> d           7.979  -2.747  -1.022  0.00  0.00     0.067 H 
ATOM     28  H15 <0> d           7.926  -3.050   0.732  0.00  0.00     0.067 H 
ATOM     29  H16 <0> d           7.974  -4.417  -0.407  0.00  0.00     0.067 H 
ENDBRANCH  25  26
ENDBRANCH  23  25
ENDBRANCH  20  23
ENDBRANCH  17  20
ENDBRANCH   1  17
BRANCH   2  30
ATOM     30  C10 <0> d           0.275  -1.224  -1.445  0.00  0.00     0.074 A 
ATOM     31  C15 <0> d           0.067  -1.652  -2.760  0.00  0.00     0.173 A 
ATOM     32  C14 <0> d          -1.065  -2.384  -3.074  0.00  0.00     0.194 A 
ATOM     33  F1  <0> d           0.971  -1.356  -3.720  0.00  0.00    -0.202 F 
ATOM     34  C13 <0> d          -1.994  -2.682  -2.089  0.00  0.00     0.158 A 
ATOM     35  F2  <0> d          -1.267  -2.803  -4.342  0.00  0.00    -0.200 F 
ATOM     36  C12 <0> d          -1.793  -2.254  -0.785  0.00  0.00    -0.041 A 
ATOM     37  F3  <0> d          -3.101  -3.391  -2.401  0.00  0.00    -0.203 F 
ATOM     38  C11 <0> d          -0.667  -1.530  -0.460  0.00  0.00    -0.062 A 
ATOM     39  H18 <0> d          -2.520  -2.490  -0.023  0.00  0.00     0.088 H 
ATOM     40  H17 <0> d          -0.513  -1.199   0.557  0.00  0.00     0.085 H 
ENDBRANCH   2  30
TORSDOF 10
