REMARK  7 active torsions:
REMARK  status: ('A' for Active; 'I' for Inactive)
REMARK    1  A    between atoms: C1_1  and  C2_2 
REMARK    2  A    between atoms: C2_2  and  C3_4 
REMARK    3  A    between atoms: C2_2  and  N1_7 
REMARK    4  A    between atoms: C10_15  and  C11_16 
REMARK    5  A    between atoms: C11_16  and  C12_17 
REMARK    6  A    between atoms: C12_17  and  C13_18 
REMARK    7  A    between atoms: C13_18  and  C14_19 
ROOT
ATOM      1  N1  <0> d           0.688  -0.476  -1.203  0.00  0.00    -0.318 N 
ATOM      2  C4  <0> d           1.996  -0.210  -1.559  0.00  0.00     0.065 A 
ATOM      3  C5  <0> d           3.025   0.518  -0.977  0.00  0.00    -0.053 A 
ATOM      4  C6  <0> d           4.250   0.592  -1.602  0.00  0.00    -0.060 A 
ATOM      5  C7  <0> d           4.464  -0.056  -2.812  0.00  0.00     0.036 A 
ATOM      6  C8  <0> d           3.455  -0.782  -3.404  0.00  0.00    -0.032 A 
ATOM      7  C9  <0> d           2.206  -0.868  -2.782  0.00  0.00     0.087 A 
ATOM      8  N2  <0> d           1.042  -1.488  -3.104  0.00  0.00    -0.233 NA
ATOM      9  C10 <0> d           0.156  -1.264  -2.177  0.00  0.00     0.108 A 
ATOM     10 Cl1  <0> d           6.015   0.051  -3.584  0.00  0.00    -0.084 Cl
ATOM     11  H5  <0> d           2.865   1.024  -0.037  0.00  0.00     0.087 H 
ATOM     12  H6  <0> d           5.050   1.159  -1.149  0.00  0.00     0.086 H 
ATOM     13  H7  <0> d           3.628  -1.284  -4.344  0.00  0.00     0.089 H 
ENDROOT
BRANCH   9  14
ATOM     14  C11 <0> d          -1.254  -1.795  -2.184  0.00  0.00    -0.009 C 
ATOM     15  H8  <0> d          -1.280  -2.751  -2.707  0.00  0.00     0.044 H 
ATOM     16  H9  <0> d          -1.595  -1.932  -1.158  0.00  0.00     0.044 H 
BRANCH  14  17
ATOM     17  C12 <0> d          -2.171  -0.798  -2.897  0.00  0.00    -0.050 C 
ATOM     18  H10 <0> d          -2.145   0.158  -2.374  0.00  0.00     0.034 H 
ATOM     19  H11 <0> d          -1.829  -0.661  -3.923  0.00  0.00     0.034 H 
BRANCH  17  20
ATOM     20  C13 <0> d          -3.602  -1.337  -2.904  0.00  0.00     0.016 C 
ATOM     21  H12 <0> d          -3.628  -2.293  -3.427  0.00  0.00     0.049 H 
ATOM     22  H13 <0> d          -3.944  -1.475  -1.878  0.00  0.00     0.049 H 
BRANCH  20  23
ATOM     23  C14 <0> d          -4.505  -0.356  -3.607  0.00  0.00     0.172 C 
ATOM     24  O3  <0> d          -4.046   0.678  -4.060  0.00  0.00    -0.648 OA
ATOM     25  O4  <0> d          -5.695  -0.597  -3.722  0.00  0.00    -0.648 OA
ENDBRANCH  20  23
ENDBRANCH  17  20
ENDBRANCH  14  17
ENDBRANCH   9  14
BRANCH   1  26
ATOM     26  C2  <0> d           0.002  -0.004   0.002  0.00  0.00     0.099 C 
ATOM     27  H1  <0> d          -1.020  -0.381   0.010  0.00  0.00     0.089 H 
BRANCH  26  28
ATOM     28  C1  <0> d          -0.019   1.526   0.010  0.00  0.00    -0.048 C 
ATOM     29  H2  <0> d           1.004   1.903   0.003  0.00  0.00     0.030 H 
ATOM     30  H3  <0> d          -0.546   1.887  -0.873  0.00  0.00     0.030 H 
ATOM     31  H4  <0> d          -0.529   1.877   0.907  0.00  0.00     0.030 H 
ENDBRANCH  26  28
BRANCH  26  32
ATOM     32  C3  <0> d           0.731  -0.503   1.223  0.00  0.00     0.196 C 
ATOM     33  O1  <0> d           1.191   0.291   2.025  0.00  0.00    -0.646 OA
ATOM     34  O2  <0> d           0.860  -1.701   1.408  0.00  0.00    -0.646 OA
ENDBRANCH  26  32
ENDBRANCH   1  26
TORSDOF 7
