REMARK  7 active torsions:
REMARK  status: ('A' for Active; 'I' for Inactive)
REMARK    1  A    between atoms: C1_1  and  O1_2 
REMARK    2  A    between atoms: O1_2  and  C2_3 
REMARK    3  A    between atoms: C2_3  and  C3_5 
REMARK    4  A    between atoms: C3_5  and  C4_6 
REMARK    5  A    between atoms: C4_6  and  N1_7 
REMARK    6  A    between atoms: N1_7  and  C5_8 
REMARK       I    between atoms: N1_7  and  C8_11 
REMARK    7  A    between atoms: C8_11  and  C9_13 
ROOT
ATOM      1  N1  <0> d           1.860  -4.029  -3.101  0.00  0.00    -0.343 N 
ATOM      2  C8  <0> d           2.528  -4.661  -2.115  0.00  0.00     0.257 C 
ATOM      3  O3  <0> d           2.235  -5.803  -1.817  0.00  0.00    -0.267 OA
ENDROOT
BRANCH   1   4
ATOM      4  C4  <0> d           2.267  -2.684  -3.516  0.00  0.00     0.007 C 
ATOM      5  H6  <0> d           2.417  -2.667  -4.595  0.00  0.00     0.065 H 
ATOM      6  H7  <0> d           3.197  -2.415  -3.015  0.00  0.00     0.065 H 
BRANCH   4   7
ATOM      7  C3  <0> d           1.175  -1.682  -3.138  0.00  0.00     0.031 C 
ATOM      8  H4  <0> d           1.024  -1.699  -2.058  0.00  0.00     0.050 H 
ATOM      9  H5  <0> d           0.245  -1.951  -3.638  0.00  0.00     0.050 H 
BRANCH   7  10
ATOM     10  C2  <0> d           1.593  -0.298  -3.565  0.00  0.00     0.259 C 
ATOM     11  O2  <0> d           2.656  -0.132  -4.115  0.00  0.00    -0.265 OA
BRANCH  10  12
ATOM     12  O1  <0> d           0.786   0.749  -3.333  0.00  0.00    -0.326 OA
BRANCH  12  13
ATOM     13  C1  <0> d           1.246   2.031  -3.765  0.00  0.00     0.013 C 
ATOM     14  H1  <0> d           2.184   2.268  -3.263  0.00  0.00     0.067 H 
ATOM     15  H2  <0> d           1.405   2.016  -4.843  0.00  0.00     0.067 H 
ATOM     16  H3  <0> d           0.501   2.787  -3.518  0.00  0.00     0.067 H 
ENDBRANCH  12  13
ENDBRANCH  10  12
ENDBRANCH   7  10
ENDBRANCH   4   7
ENDBRANCH   1   4
BRANCH   1  17
ATOM     17  C5  <0> d           0.727  -4.687  -3.757  0.00  0.00     0.015 A 
ATOM     18  C7  <0> d           0.950  -6.098  -4.304  0.00  0.00    -0.044 A 
ATOM     19  C6  <0> d           0.102  -5.890  -3.048  0.00  0.00    -0.044 A 
ATOM     20  H11 <0> d           0.431  -6.370  -5.223  0.00  0.00     0.036 H 
ATOM     21  H12 <0> d           1.940  -6.537  -4.176  0.00  0.00     0.036 H 
ATOM     22  H9  <0> d           0.533  -6.192  -2.093  0.00  0.00     0.036 H 
ATOM     23  H10 <0> d          -0.976  -6.024  -3.141  0.00  0.00     0.036 H 
ATOM     24  H8  <0> d           0.061  -4.030  -4.316  0.00  0.00     0.072 H 
ENDBRANCH   1  17
BRANCH   2  25
ATOM     25  C9  <0> d           3.615  -3.967  -1.398  0.00  0.00     0.074 A 
ATOM     26  C14 <0> d           4.696  -4.694  -0.888  0.00  0.00     0.173 A 
ATOM     27  C13 <0> d           5.713  -4.035  -0.221  0.00  0.00     0.194 A 
ATOM     28  F1  <0> d           4.748  -6.034  -1.051  0.00  0.00    -0.202 F 
ATOM     29  C12 <0> d           5.655  -2.660  -0.049  0.00  0.00     0.158 A 
ATOM     30  F2  <0> d           6.762  -4.733   0.268  0.00  0.00    -0.200 F 
ATOM     31  C11 <0> d           4.582  -1.938  -0.549  0.00  0.00    -0.041 A 
ATOM     32  F3  <0> d           6.648  -2.022   0.608  0.00  0.00    -0.203 F 
ATOM     33  C10 <0> d           3.565  -2.582  -1.220  0.00  0.00    -0.062 A 
ATOM     34  H14 <0> d           4.543  -0.868  -0.412  0.00  0.00     0.088 H 
ATOM     35  H13 <0> d           2.731  -2.017  -1.608  0.00  0.00     0.085 H 
ENDBRANCH   2  25
TORSDOF 7
