REMARK  12 active torsions:
REMARK  status: ('A' for Active; 'I' for Inactive)
REMARK    1  A    between atoms: C1_1  and  C2_2 
REMARK    2  A    between atoms: C2_2  and  C3_4 
REMARK    3  A    between atoms: C2_2  and  C15_19 
REMARK    4  A    between atoms: C3_4  and  N1_5 
REMARK    5  A    between atoms: N1_5  and  C4_6 
REMARK       I    between atoms: N1_5  and  C10_13 
REMARK    6  A    between atoms: C4_6  and  C5_7 
REMARK    7  A    between atoms: C10_13  and  C11_15 
REMARK    8  A    between atoms: C11_15  and  C12_16 
REMARK    9  A    between atoms: C11_15  and  C13_17 
REMARK   10  A    between atoms: C11_15  and  C14_18 
REMARK   11  A    between atoms: C15_19  and  O3_21 
REMARK   12  A    between atoms: O3_21  and  C16_22 
ROOT
ATOM      1  N1  <0> d          -1.436   0.080  -1.240  0.00  0.00    -0.346 N 
ATOM      2  C10 <0> d          -2.334  -0.243  -0.289  0.00  0.00     0.227 C 
ATOM      3  O1  <0> d          -2.000  -0.272   0.877  0.00  0.00    -0.273 OA
ENDROOT
BRANCH   1   4
ATOM      4  C3  <0> d          -0.020   0.221  -0.893  0.00  0.00     0.009 C 
ATOM      5  H5  <0> d           0.594  -0.085  -1.740  0.00  0.00     0.065 H 
ATOM      6  H6  <0> d           0.207  -0.409  -0.033  0.00  0.00     0.065 H 
BRANCH   4   7
ATOM      7  C2  <0> d           0.278   1.682  -0.548  0.00  0.00     0.042 C 
ATOM      8  H1  <0> d          -0.068   2.324  -1.358  0.00  0.00     0.057 H 
BRANCH   7   9
ATOM      9  C1  <0> d          -0.446   2.058   0.746  0.00  0.00    -0.063 C 
ATOM     10  H2  <0> d          -0.146   3.060   1.052  0.00  0.00     0.028 H 
ATOM     11  H3  <0> d          -1.523   2.036   0.579  0.00  0.00     0.028 H 
ATOM     12  H4  <0> d          -0.185   1.346   1.529  0.00  0.00     0.028 H 
ENDBRANCH   7   9
BRANCH   7  13
ATOM     13  C15 <0> d           1.763   1.861  -0.363  0.00  0.00     0.263 C 
ATOM     14  O2  <0> d           2.506   0.918  -0.494  0.00  0.00    -0.265 OA
BRANCH  13  15
ATOM     15  O3  <0> d           2.259   3.069  -0.053  0.00  0.00    -0.326 OA
BRANCH  15  16
ATOM     16  C16 <0> d           3.676   3.167   0.107  0.00  0.00     0.013 C 
ATOM     17  H22 <0> d           3.943   4.194   0.355  0.00  0.00     0.067 H 
ATOM     18  H23 <0> d           3.997   2.503   0.910  0.00  0.00     0.067 H 
ATOM     19  H24 <0> d           4.167   2.878  -0.822  0.00  0.00     0.067 H 
ENDBRANCH  15  16
ENDBRANCH  13  15
ENDBRANCH   7  13
ENDBRANCH   4   7
ENDBRANCH   1   4
BRANCH   1  20
ATOM     20  C4  <0> d          -1.876   0.291  -2.622  0.00  0.00     0.021 C 
ATOM     21  H7  <0> d          -2.823   0.832  -2.623  0.00  0.00     0.071 H 
ATOM     22  H8  <0> d          -1.125   0.872  -3.157  0.00  0.00     0.071 H 
BRANCH  20  23
ATOM     23  C5  <0> d          -2.058  -1.042  -3.300  0.00  0.00    -0.037 A 
ATOM     24  C9  <0> d          -2.999  -1.204  -4.305  0.00  0.00    -0.058 A 
ATOM     25  C8  <0> d          -3.133  -2.440  -4.909  0.00  0.00     0.002 A 
ATOM     26  H12 <0> d          -3.616  -0.374  -4.616  0.00  0.00     0.086 H 
ATOM     27  N2  <0> d          -2.388  -3.460  -4.531  0.00  0.00    -0.273 NA
ATOM     28  H11 <0> d          -3.861  -2.574  -5.696  0.00  0.00     0.114 H 
ATOM     29  C7  <0> d          -1.487  -3.344  -3.574  0.00  0.00     0.002 A 
ATOM     30  C6  <0> d          -1.292  -2.137  -2.930  0.00  0.00    -0.058 A 
ATOM     31  H10 <0> d          -0.895  -4.202  -3.292  0.00  0.00     0.114 H 
ATOM     32  H9  <0> d          -0.553  -2.048  -2.147  0.00  0.00     0.086 H 
ENDBRANCH  20  23
ENDBRANCH   1  20
BRANCH   2  33
ATOM     33  C11 <0> d          -3.755  -0.569  -0.673  0.00  0.00     0.030 C 
BRANCH  33  34
ATOM     34  C12 <0> d          -4.647  -0.505   0.569  0.00  0.00    -0.061 C 
ATOM     35  H13 <0> d          -4.606   0.498   0.993  0.00  0.00     0.029 H 
ATOM     36  H14 <0> d          -5.674  -0.740   0.291  0.00  0.00     0.029 H 
ATOM     37  H15 <0> d          -4.295  -1.226   1.306  0.00  0.00     0.029 H 
ENDBRANCH  33  34
BRANCH  33  38
ATOM     38  C13 <0> d          -4.248   0.444  -1.708  0.00  0.00    -0.061 C 
ATOM     39  H16 <0> d          -4.120   0.032  -2.709  0.00  0.00     0.029 H 
ATOM     40  H17 <0> d          -5.303   0.656  -1.535  0.00  0.00     0.029 H 
ATOM     41  H18 <0> d          -3.673   1.365  -1.619  0.00  0.00     0.029 H 
ENDBRANCH  33  38
BRANCH  33  42
ATOM     42  C14 <0> d          -3.812  -1.977  -1.269  0.00  0.00    -0.061 C 
ATOM     43  H19 <0> d          -4.110  -2.686  -0.498  0.00  0.00     0.029 H 
ATOM     44  H20 <0> d          -4.537  -1.998  -2.083  0.00  0.00     0.029 H 
ATOM     45  H21 <0> d          -2.828  -2.249  -1.653  0.00  0.00     0.029 H 
ENDBRANCH  33  42
ENDBRANCH   2  33
TORSDOF 12
