REMARK  10 active torsions:
REMARK  status: ('A' for Active; 'I' for Inactive)
REMARK    1  A    between atoms: C1_1  and  C2_2 
REMARK    2  A    between atoms: C2_2  and  C3_3 
REMARK    3  A    between atoms: C3_3  and  C4_5 
REMARK    4  A    between atoms: C3_3  and  N1_6 
REMARK    5  A    between atoms: N1_6  and  C5_7 
REMARK       I    between atoms: N1_6  and  C9_13 
REMARK    6  A    between atoms: C5_7  and  C6_8 
REMARK    7  A    between atoms: C6_8  and  C7_9 
REMARK    8  A    between atoms: C7_9  and  O2_11 
REMARK    9  A    between atoms: O2_11  and  C8_12 
REMARK   10  A    between atoms: C9_13  and  C10_15 
ROOT
ATOM      1  N1  <0> d          -0.390   0.350   2.019  0.00  0.00    -0.343 N 
ATOM      2  C9  <0> d          -1.536  -0.354   2.097  0.00  0.00     0.257 C 
ATOM      3  O3  <0> d          -2.211  -0.309   3.107  0.00  0.00    -0.267 OA
ENDROOT
BRANCH   1   4
ATOM      4  C3  <0> d           0.744  -0.177   1.256  0.00  0.00     0.011 C 
ATOM      5  H1  <0> d           1.663   0.302   1.593  0.00  0.00     0.072 H 
BRANCH   4   6
ATOM      6  C2  <0> d           0.535   0.113  -0.232  0.00  0.00    -0.050 C 
ATOM      7  H5  <0> d          -0.532   0.133  -0.452  0.00  0.00     0.035 H 
ATOM      8  H6  <0> d           1.014  -0.666  -0.825  0.00  0.00     0.035 H 
BRANCH   6   9
ATOM      9  C1  <0> d           1.152   1.470  -0.579  0.00  0.00    -0.075 C 
ATOM     10  H2  <0> d           2.219   1.450  -0.359  0.00  0.00     0.027 H 
ATOM     11  H3  <0> d           1.003   1.676  -1.639  0.00  0.00     0.027 H 
ATOM     12  H4  <0> d           0.673   2.249   0.014  0.00  0.00     0.027 H 
ENDBRANCH   6   9
ENDBRANCH   4   6
BRANCH   4  13
ATOM     13  C4  <0> d           0.846  -1.688   1.471  0.00  0.00    -0.057 C 
ATOM     14  H7  <0> d           1.536  -2.113   0.743  0.00  0.00     0.030 H 
ATOM     15  H8  <0> d           1.212  -1.887   2.478  0.00  0.00     0.030 H 
ATOM     16  H9  <0> d          -0.138  -2.140   1.346  0.00  0.00     0.030 H 
ENDBRANCH   4  13
ENDBRANCH   1   4
BRANCH   1  17
ATOM     17  C5  <0> d          -0.278   1.643   2.699  0.00  0.00     0.007 C 
ATOM     18  H10 <0> d          -0.910   1.643   3.587  0.00  0.00     0.065 H 
ATOM     19  H11 <0> d           0.759   1.811   2.992  0.00  0.00     0.065 H 
BRANCH  17  20
ATOM     20  C6  <0> d          -0.727   2.758   1.753  0.00  0.00     0.031 C 
ATOM     21  H12 <0> d          -0.094   2.758   0.865  0.00  0.00     0.050 H 
ATOM     22  H13 <0> d          -1.763   2.590   1.460  0.00  0.00     0.050 H 
BRANCH  20  23
ATOM     23  C7  <0> d          -0.611   4.088   2.452  0.00  0.00     0.259 C 
ATOM     24  O1  <0> d          -0.211   4.139   3.591  0.00  0.00    -0.265 OA
BRANCH  23  25
ATOM     25  O2  <0> d          -0.953   5.216   1.810  0.00  0.00    -0.326 OA
BRANCH  25  26
ATOM     26  C8  <0> d          -0.819   6.441   2.534  0.00  0.00     0.013 C 
ATOM     27  H14 <0> d          -1.447   6.408   3.424  0.00  0.00     0.067 H 
ATOM     28  H15 <0> d           0.222   6.576   2.829  0.00  0.00     0.067 H 
ATOM     29  H16 <0> d          -1.128   7.272   1.901  0.00  0.00     0.067 H 
ENDBRANCH  25  26
ENDBRANCH  23  25
ENDBRANCH  20  23
ENDBRANCH  17  20
ENDBRANCH   1  17
BRANCH   2  30
ATOM     30  C10 <0> d          -1.973  -1.181   0.955  0.00  0.00     0.074 A 
ATOM     31  C15 <0> d          -3.329  -1.474   0.778  0.00  0.00     0.173 A 
ATOM     32  C14 <0> d          -3.731  -2.246  -0.299  0.00  0.00     0.194 A 
ATOM     33  F1  <0> d          -4.244  -1.001   1.651  0.00  0.00    -0.202 F 
ATOM     34  C13 <0> d          -2.790  -2.736  -1.192  0.00  0.00     0.158 A 
ATOM     35  F2  <0> d          -5.040  -2.526  -0.476  0.00  0.00    -0.200 F 
ATOM     36  C12 <0> d          -1.444  -2.451  -1.015  0.00  0.00    -0.041 A 
ATOM     37  F3  <0> d          -3.186  -3.493  -2.238  0.00  0.00    -0.203 F 
ATOM     38  C11 <0> d          -1.032  -1.679   0.049  0.00  0.00    -0.062 A 
ATOM     39  H18 <0> d          -0.716  -2.835  -1.715  0.00  0.00     0.088 H 
ATOM     40  H17 <0> d           0.017  -1.459   0.183  0.00  0.00     0.085 H 
ENDBRANCH   2  30
TORSDOF 10
