REMARK  12 active torsions:
REMARK  status: ('A' for Active; 'I' for Inactive)
REMARK    1  A    between atoms: C1_1  and  C2_2 
REMARK    2  A    between atoms: C2_2  and  N1_3 
REMARK    3  A    between atoms: N1_3  and  C3_4 
REMARK       I    between atoms: N1_3  and  C8_11 
REMARK    4  A    between atoms: C3_4  and  C4_5 
REMARK    5  A    between atoms: C4_5  and  C5_6 
REMARK    6  A    between atoms: C5_6  and  O2_8 
REMARK    7  A    between atoms: O2_8  and  C6_9 
REMARK    8  A    between atoms: C6_9  and  C7_10 
REMARK    9  A    between atoms: C8_11  and  C9_13 
REMARK   10  A    between atoms: C9_13  and  C10_14 
REMARK   11  A    between atoms: C9_13  and  C11_15 
REMARK   12  A    between atoms: C9_13  and  C12_16 
ROOT
ATOM      1  N1  <0> d           1.254  -0.015   1.641  0.00  0.00    -0.351 N 
ATOM      2  C8  <0> d           2.450  -0.409   1.163  0.00  0.00     0.227 C 
ATOM      3  O3  <0> d           3.227  -0.999   1.883  0.00  0.00    -0.273 OA
ENDROOT
BRANCH   1   4
ATOM      4  C2  <0> d           0.299   0.662   0.759  0.00  0.00    -0.006 C 
ATOM      5  H4  <0> d          -0.711   0.323   0.989  0.00  0.00     0.063 H 
ATOM      6  H5  <0> d           0.534   0.427  -0.279  0.00  0.00     0.063 H 
BRANCH   4   7
ATOM      7  C1  <0> d           0.390   2.174   0.973  0.00  0.00    -0.061 C 
ATOM      8  H1  <0> d           1.355   2.534   0.615  0.00  0.00     0.029 H 
ATOM      9  H2  <0> d          -0.410   2.668   0.421  0.00  0.00     0.029 H 
ATOM     10  H3  <0> d           0.291   2.397   2.035  0.00  0.00     0.029 H 
ENDBRANCH   4   7
ENDBRANCH   1   4
BRANCH   1  11
ATOM     11  C3  <0> d           0.907  -0.262   3.043  0.00  0.00     0.006 C 
ATOM     12  H6  <0> d           1.814  -0.257   3.647  0.00  0.00     0.065 H 
ATOM     13  H7  <0> d           0.232   0.519   3.393  0.00  0.00     0.065 H 
BRANCH  11  14
ATOM     14  C4  <0> d           0.220  -1.623   3.166  0.00  0.00     0.031 C 
ATOM     15  H8  <0> d          -0.687  -1.629   2.561  0.00  0.00     0.050 H 
ATOM     16  H9  <0> d           0.895  -2.404   2.815  0.00  0.00     0.050 H 
BRANCH  14  17
ATOM     17  C5  <0> d          -0.136  -1.878   4.608  0.00  0.00     0.260 C 
ATOM     18  O1  <0> d           0.132  -1.055   5.451  0.00  0.00    -0.265 OA
BRANCH  17  19
ATOM     19  O2  <0> d          -0.751  -3.019   4.956  0.00  0.00    -0.322 OA
BRANCH  19  20
ATOM     20  C6  <0> d          -1.059  -3.194   6.340  0.00  0.00     0.025 C 
ATOM     21  H10 <0> d          -0.139  -3.167   6.924  0.00  0.00     0.074 H 
ATOM     22  H11 <0> d          -1.720  -2.392   6.670  0.00  0.00     0.074 H 
BRANCH  20  23
ATOM     23  C7  <0> d          -1.753  -4.542   6.542  0.00  0.00    -0.056 C 
ATOM     24  H12 <0> d          -1.091  -5.344   6.213  0.00  0.00     0.030 H 
ATOM     25  H13 <0> d          -1.988  -4.676   7.598  0.00  0.00     0.030 H 
ATOM     26  H14 <0> d          -2.673  -4.568   5.959  0.00  0.00     0.030 H 
ENDBRANCH  20  23
ENDBRANCH  19  20
ENDBRANCH  17  19
ENDBRANCH  14  17
ENDBRANCH  11  14
ENDBRANCH   1  11
BRANCH   2  27
ATOM     27  C9  <0> d           2.823  -0.118  -0.268  0.00  0.00     0.030 C 
BRANCH  27  28
ATOM     28  C10 <0> d           4.300  -0.450  -0.488  0.00  0.00    -0.061 C 
ATOM     29  H15 <0> d           4.471  -1.506  -0.276  0.00  0.00     0.029 H 
ATOM     30  H16 <0> d           4.570  -0.239  -1.523  0.00  0.00     0.029 H 
ATOM     31  H17 <0> d           4.913   0.158   0.178  0.00  0.00     0.029 H 
ENDBRANCH  27  28
BRANCH  27  32
ATOM     32  C11 <0> d           1.964  -0.971  -1.203  0.00  0.00    -0.061 C 
ATOM     33  H18 <0> d           0.911  -0.736  -1.045  0.00  0.00     0.029 H 
ATOM     34  H19 <0> d           2.232  -0.758  -2.238  0.00  0.00     0.029 H 
ATOM     35  H20 <0> d           2.136  -2.026  -0.993  0.00  0.00     0.029 H 
ENDBRANCH  27  32
BRANCH  27  36
ATOM     36  C12 <0> d           2.584   1.364  -0.566  0.00  0.00    -0.061 C 
ATOM     37  H21 <0> d           2.999   1.968   0.241  0.00  0.00     0.029 H 
ATOM     38  H22 <0> d           3.070   1.629  -1.505  0.00  0.00     0.029 H 
ATOM     39  H23 <0> d           1.513   1.550  -0.645  0.00  0.00     0.029 H 
ENDBRANCH  27  36
ENDBRANCH   2  27
TORSDOF 12
