REMARK  9 active torsions:
REMARK  status: ('A' for Active; 'I' for Inactive)
REMARK    1  A    between atoms: C1_1  and  C2_2 
REMARK    2  A    between atoms: C2_2  and  C3_3 
REMARK    3  A    between atoms: C2_2  and  N1_4 
REMARK    4  A    between atoms: N1_4  and  C4_5 
REMARK       I    between atoms: N1_4  and  C8_11 
REMARK    5  A    between atoms: C4_5  and  C5_6 
REMARK    6  A    between atoms: C5_6  and  C6_7 
REMARK    7  A    between atoms: C6_7  and  O2_9 
REMARK    8  A    between atoms: O2_9  and  C7_10 
REMARK    9  A    between atoms: C8_11  and  C9_13 
ROOT
ATOM      1  N1  <0> d          -1.367   0.040   0.771  0.00  0.00    -0.343 N 
ATOM      2  C8  <0> d          -1.503   1.266   1.314  0.00  0.00     0.257 C 
ATOM      3  O3  <0> d          -2.568   1.848   1.241  0.00  0.00    -0.267 OA
ENDROOT
BRANCH   1   4
ATOM      4  C2  <0> d          -0.116  -0.332   0.106  0.00  0.00     0.008 C 
ATOM      5  H4  <0> d          -0.300  -1.162  -0.577  0.00  0.00     0.071 H 
BRANCH   4   6
ATOM      6  C1  <0> d           0.420   0.866  -0.681  0.00  0.00    -0.057 C 
ATOM      7  H1  <0> d           1.425   0.645  -1.039  0.00  0.00     0.030 H 
ATOM      8  H2  <0> d          -0.233   1.063  -1.531  0.00  0.00     0.030 H 
ATOM      9  H3  <0> d           0.448   1.742  -0.033  0.00  0.00     0.030 H 
ENDBRANCH   4   6
BRANCH   4  10
ATOM     10  C3  <0> d           0.914  -0.754   1.156  0.00  0.00    -0.057 C 
ATOM     11  H5  <0> d           0.623  -0.359   2.129  0.00  0.00     0.030 H 
ATOM     12  H6  <0> d           0.959  -1.842   1.204  0.00  0.00     0.030 H 
ATOM     13  H7  <0> d           1.893  -0.362   0.883  0.00  0.00     0.030 H 
ENDBRANCH   4  10
ENDBRANCH   1   4
BRANCH   1  14
ATOM     14  C4  <0> d          -2.471  -0.921   0.845  0.00  0.00     0.007 C 
ATOM     15  H8  <0> d          -3.419  -0.384   0.858  0.00  0.00     0.065 H 
ATOM     16  H9  <0> d          -2.438  -1.580  -0.022  0.00  0.00     0.065 H 
BRANCH  14  17
ATOM     17  C5  <0> d          -2.338  -1.752   2.123  0.00  0.00     0.031 C 
ATOM     18  H10 <0> d          -1.389  -2.289   2.110  0.00  0.00     0.050 H 
ATOM     19  H11 <0> d          -2.370  -1.093   2.990  0.00  0.00     0.050 H 
BRANCH  17  20
ATOM     20  C6  <0> d          -3.473  -2.740   2.200  0.00  0.00     0.259 C 
ATOM     21  O1  <0> d          -4.303  -2.776   1.322  0.00  0.00    -0.265 OA
BRANCH  20  22
ATOM     22  O2  <0> d          -3.562  -3.581   3.242  0.00  0.00    -0.326 OA
BRANCH  22  23
ATOM     23  C7  <0> d          -4.663  -4.491   3.250  0.00  0.00     0.013 C 
ATOM     24  H12 <0> d          -4.616  -5.111   4.145  0.00  0.00     0.067 H 
ATOM     25  H13 <0> d          -5.598  -3.930   3.245  0.00  0.00     0.067 H 
ATOM     26  H14 <0> d          -4.617  -5.126   2.365  0.00  0.00     0.067 H 
ENDBRANCH  22  23
ENDBRANCH  20  22
ENDBRANCH  17  20
ENDBRANCH  14  17
ENDBRANCH   1  14
BRANCH   2  27
ATOM     27  C9  <0> d          -0.359   1.901   1.997  0.00  0.00     0.074 A 
ATOM     28  C14 <0> d          -0.579   2.797   3.049  0.00  0.00     0.173 A 
ATOM     29  C13 <0> d           0.498   3.384   3.688  0.00  0.00     0.194 A 
ATOM     30  F1  <0> d          -1.839   3.083   3.443  0.00  0.00    -0.202 F 
ATOM     31  C12 <0> d           1.791   3.094   3.279  0.00  0.00     0.158 A 
ATOM     32  F2  <0> d           0.290   4.246   4.708  0.00  0.00    -0.200 F 
ATOM     33  C11 <0> d           2.011   2.210   2.233  0.00  0.00    -0.041 A 
ATOM     34  F3  <0> d           2.840   3.674   3.902  0.00  0.00    -0.203 F 
ATOM     35  C10 <0> d           0.947   1.614   1.593  0.00  0.00    -0.062 A 
ATOM     36  H16 <0> d           3.021   1.988   1.920  0.00  0.00     0.088 H 
ATOM     37  H15 <0> d           1.122   0.926   0.779  0.00  0.00     0.085 H 
ENDBRANCH   2  27
TORSDOF 9
