REMARK  8 active torsions:
REMARK  status: ('A' for Active; 'I' for Inactive)
REMARK    1  A    between atoms: C1_1  and  C2_2 
REMARK    2  A    between atoms: C2_2  and  C3_3 
REMARK    3  A    between atoms: C2_2  and  C4_4 
REMARK    4  A    between atoms: C2_2  and  N1_6 
REMARK    5  A    between atoms: C4_4  and  O1_5 
REMARK    6  A    between atoms: C10_13  and  O3_17 
REMARK    7  A    between atoms: O3_17  and  C13_18 
REMARK    8  A    between atoms: C13_18  and  C14_19 
ROOT
ATOM      1  N1  <0> d           0.688  -0.476  -1.203  0.00  0.00    -0.316 N 
ATOM      2  C5  <0> d           2.079  -0.183  -1.566  0.00  0.00     0.126 A 
ATOM      3  H1  <0> d           2.755  -0.569  -0.802  0.00  0.00     0.104 H 
ATOM      4  C6  <0> d           2.328  -0.882  -2.879  0.00  0.00    -0.003 A 
ATOM      5  C7  <0> d           3.424  -0.975  -3.703  0.00  0.00    -0.073 A 
ATOM      6  C8  <0> d           3.351  -1.708  -4.877  0.00  0.00    -0.080 A 
ATOM      7  C9  <0> d           2.179  -2.349  -5.226  0.00  0.00    -0.050 A 
ATOM      8  C10 <0> d           1.065  -2.265  -4.405  0.00  0.00     0.085 A 
ATOM      9  C11 <0> d           1.134  -1.524  -3.217  0.00  0.00     0.074 A 
ATOM     10  C12 <0> d           0.148  -1.255  -2.157  0.00  0.00     0.259 A 
ATOM     11  O2  <0> d          -0.993  -1.675  -2.147  0.00  0.00    -0.267 OA
ATOM     12  C20 <0> d           2.267   1.269  -1.720  0.00  0.00     0.089 C 
ATOM     13  N2  <0> d           2.411   2.389  -1.839  0.00  0.00    -0.195 NA
ATOM     14  H11 <0> d           4.344  -0.476  -3.435  0.00  0.00     0.084 H 
ATOM     15  H12 <0> d           4.215  -1.778  -5.522  0.00  0.00     0.083 H 
ATOM     16  H13 <0> d           2.130  -2.918  -6.143  0.00  0.00     0.087 H 
ENDROOT
BRANCH   1  17
ATOM     17  C2  <0> d           0.002  -0.004   0.002  0.00  0.00     0.051 C 
BRANCH  17  18
ATOM     18  C1  <0> d          -0.019   1.526   0.010  0.00  0.00    -0.051 C 
ATOM     19  H2  <0> d           1.004   1.903   0.003  0.00  0.00     0.030 H 
ATOM     20  H3  <0> d          -0.546   1.887  -0.873  0.00  0.00     0.030 H 
ATOM     21  H4  <0> d          -0.529   1.877   0.907  0.00  0.00     0.030 H 
ENDBRANCH  17  18
BRANCH  17  22
ATOM     22  C3  <0> d           0.742  -0.511   1.242  0.00  0.00    -0.051 C 
ATOM     23  H5  <0> d           0.232  -0.159   2.138  0.00  0.00     0.030 H 
ATOM     24  H6  <0> d           0.757  -1.601   1.236  0.00  0.00     0.030 H 
ATOM     25  H7  <0> d           1.765  -0.134   1.234  0.00  0.00     0.030 H 
ENDBRANCH  17  22
BRANCH  17  26
ATOM     26  C4  <0> d          -1.433  -0.534   0.013  0.00  0.00     0.040 C 
ATOM     27  H8  <0> d          -1.960  -0.173  -0.870  0.00  0.00     0.077 H 
ATOM     28  H9  <0> d          -1.419  -1.623   0.007  0.00  0.00     0.077 H 
BRANCH  26  29
ATOM     29  O1  <0> d          -2.102  -0.073   1.189  0.00  0.00    -0.398 OA
ATOM     30  H10 <0> d          -3.019  -0.371   1.262  0.00  0.00     0.209 HD
ENDBRANCH  26  29
ENDBRANCH  17  26
ENDBRANCH   1  17
BRANCH   8  31
ATOM     31  O3  <0> d          -0.086  -2.895  -4.750  0.00  0.00    -0.346 OA
BRANCH  31  32
ATOM     32  C13 <0> d          -0.081  -3.630  -5.976  0.00  0.00     0.050 C 
ATOM     33  H14 <0> d           0.143  -2.956  -6.802  0.00  0.00     0.082 H 
ATOM     34  H15 <0> d           0.678  -4.411  -5.928  0.00  0.00     0.082 H 
BRANCH  32  35
ATOM     35  C14 <0> d          -1.434  -4.257  -6.191  0.00  0.00    -0.034 A 
ATOM     36  C19 <0> d          -2.415  -3.565  -6.878  0.00  0.00    -0.075 A 
ATOM     37  C18 <0> d          -3.655  -4.142  -7.079  0.00  0.00    -0.082 A 
ATOM     38  H20 <0> d          -2.211  -2.576  -7.260  0.00  0.00     0.084 H 
ATOM     39  C17 <0> d          -3.917  -5.406  -6.586  0.00  0.00    -0.083 A 
ATOM     40  H19 <0> d          -4.419  -3.604  -7.620  0.00  0.00     0.083 H 
ATOM     41  C16 <0> d          -2.939  -6.095  -5.894  0.00  0.00    -0.082 A 
ATOM     42  H18 <0> d          -4.887  -5.856  -6.741  0.00  0.00     0.083 H 
ATOM     43  C15 <0> d          -1.697  -5.521  -5.697  0.00  0.00    -0.075 A 
ATOM     44  H17 <0> d          -3.144  -7.083  -5.509  0.00  0.00     0.083 H 
ATOM     45  H16 <0> d          -0.933  -6.059  -5.156  0.00  0.00     0.084 H 
ENDBRANCH  32  35
ENDBRANCH  31  32
ENDBRANCH   8  31
TORSDOF 8
