REMARK  11 active torsions:
REMARK  status: ('A' for Active; 'I' for Inactive)
REMARK    1  A    between atoms: C1_1  and  C2_2 
REMARK    2  A    between atoms: C2_2  and  C3_4 
REMARK    3  A    between atoms: C2_2  and  C14_17 
REMARK    4  A    between atoms: C3_4  and  N1_5 
REMARK    5  A    between atoms: N1_5  and  C4_6 
REMARK       I    between atoms: N1_5  and  C9_11 
REMARK    6  A    between atoms: C9_11  and  C10_13 
REMARK    7  A    between atoms: C10_13  and  C11_14 
REMARK    8  A    between atoms: C10_13  and  C12_15 
REMARK    9  A    between atoms: C10_13  and  C13_16 
REMARK   10  A    between atoms: C14_17  and  O3_19 
REMARK   11  A    between atoms: O3_19  and  C15_20 
ROOT
ATOM      1  N1  <0> d           2.449   0.078  -1.135  0.00  0.00    -0.346 N 
ATOM      2  C9  <0> d           2.606   1.171  -1.908  0.00  0.00     0.227 C 
ATOM      3  O1  <0> d           3.689   1.419  -2.394  0.00  0.00    -0.273 OA
ENDROOT
BRANCH   1   4
ATOM      4  C3  <0> d           1.125  -0.260  -0.606  0.00  0.00     0.010 C 
ATOM      5  H5  <0> d           0.830  -1.245  -0.968  0.00  0.00     0.065 H 
ATOM      6  H6  <0> d           0.400   0.482  -0.940  0.00  0.00     0.065 H 
BRANCH   4   7
ATOM      7  C2  <0> d           1.176  -0.273   0.923  0.00  0.00     0.042 C 
ATOM      8  H1  <0> d           1.856  -1.056   1.258  0.00  0.00     0.057 H 
BRANCH   7   9
ATOM      9  C1  <0> d           1.672   1.084   1.428  0.00  0.00    -0.063 C 
ATOM     10  H2  <0> d           2.597   1.346   0.915  0.00  0.00     0.028 H 
ATOM     11  H3  <0> d           0.917   1.844   1.227  0.00  0.00     0.028 H 
ATOM     12  H4  <0> d           1.854   1.027   2.501  0.00  0.00     0.028 H 
ENDBRANCH   7   9
BRANCH   7  13
ATOM     13  C14 <0> d          -0.204  -0.538   1.469  0.00  0.00     0.263 C 
ATOM     14  O2  <0> d          -1.132  -0.701   0.713  0.00  0.00    -0.265 OA
BRANCH  13  15
ATOM     15  O3  <0> d          -0.401  -0.594   2.795  0.00  0.00    -0.326 OA
BRANCH  15  16
ATOM     16  C15 <0> d          -1.734  -0.849   3.243  0.00  0.00     0.013 C 
ATOM     17  H25 <0> d          -2.396  -0.062   2.881  0.00  0.00     0.067 H 
ATOM     18  H26 <0> d          -2.069  -1.812   2.856  0.00  0.00     0.067 H 
ATOM     19  H27 <0> d          -1.755  -0.869   4.332  0.00  0.00     0.067 H 
ENDBRANCH  15  16
ENDBRANCH  13  15
ENDBRANCH   7  13
ENDBRANCH   4   7
ENDBRANCH   1   4
BRANCH   1  20
ATOM     20  C4  <0> d           3.601  -0.772  -0.825  0.00  0.00     0.014 C 
ATOM     21  C8  <0> d           4.196  -1.347  -2.123  0.00  0.00    -0.046 C 
ATOM     22  C7  <0> d           5.650  -0.837  -2.204  0.00  0.00    -0.063 C 
ATOM     23  H14 <0> d           4.184  -2.436  -2.089  0.00  0.00     0.036 H 
ATOM     24  H15 <0> d           3.628  -0.993  -2.983  0.00  0.00     0.036 H 
ATOM     25  C6  <0> d           6.026  -0.526  -0.734  0.00  0.00    -0.063 C 
ATOM     26  H12 <0> d           5.704   0.067  -2.811  0.00  0.00     0.033 H 
ATOM     27  H13 <0> d           6.303  -1.610  -2.609  0.00  0.00     0.033 H 
ATOM     28  C5  <0> d           4.714   0.067  -0.164  0.00  0.00    -0.046 C 
ATOM     29  H10 <0> d           6.832   0.207  -0.688  0.00  0.00     0.033 H 
ATOM     30  H11 <0> d           6.301  -1.438  -0.204  0.00  0.00     0.033 H 
ATOM     31  H8  <0> d           4.617   1.116  -0.441  0.00  0.00     0.036 H 
ATOM     32  H9  <0> d           4.683  -0.046   0.920  0.00  0.00     0.036 H 
ATOM     33  H7  <0> d           3.299  -1.583  -0.162  0.00  0.00     0.072 H 
ENDBRANCH   1  20
BRANCH   2  34
ATOM     34  C10 <0> d           1.437   2.086  -2.167  0.00  0.00     0.030 C 
BRANCH  34  35
ATOM     35  C11 <0> d           1.897   3.275  -3.012  0.00  0.00    -0.061 C 
ATOM     36  H16 <0> d           2.294   2.915  -3.961  0.00  0.00     0.029 H 
ATOM     37  H17 <0> d           1.051   3.937  -3.199  0.00  0.00     0.029 H 
ATOM     38  H18 <0> d           2.674   3.822  -2.477  0.00  0.00     0.029 H 
ENDBRANCH  34  35
BRANCH  34  39
ATOM     39  C12 <0> d           0.347   1.318  -2.918  0.00  0.00    -0.061 C 
ATOM     40  H19 <0> d          -0.026   0.509  -2.291  0.00  0.00     0.029 H 
ATOM     41  H20 <0> d          -0.472   1.996  -3.162  0.00  0.00     0.029 H 
ATOM     42  H21 <0> d           0.761   0.904  -3.837  0.00  0.00     0.029 H 
ENDBRANCH  34  39
BRANCH  34  43
ATOM     43  C13 <0> d           0.879   2.591  -0.835  0.00  0.00    -0.061 C 
ATOM     44  H22 <0> d           1.680   3.051  -0.257  0.00  0.00     0.029 H 
ATOM     45  H23 <0> d           0.098   3.327  -1.024  0.00  0.00     0.029 H 
ATOM     46  H24 <0> d           0.462   1.754  -0.275  0.00  0.00     0.029 H 
ENDBRANCH  34  43
ENDBRANCH   2  34
TORSDOF 11
