REMARK  7 active torsions:
REMARK  status: ('A' for Active; 'I' for Inactive)
REMARK    1  A    between atoms: C7_9  and  C11_16 
REMARK    2  A    between atoms: N2_10  and  C8_11 
REMARK    3  A    between atoms: C8_11  and  C9_12 
REMARK    4  A    between atoms: C9_12  and  C10_13 
REMARK    5  A    between atoms: C11_16  and  C12_17 
REMARK    6  A    between atoms: C12_17  and  C13_18 
REMARK    7  A    between atoms: C13_18  and  C14_19 
ROOT
ATOM      1  C1  <0> d          -0.017   1.384   0.010  0.00  0.00    -0.060 A 
ATOM      2  C2  <0> d           1.162   2.099   0.002  0.00  0.00    -0.053 A 
ATOM      3  C3  <0> d           2.377   1.428  -0.013  0.00  0.00     0.065 A 
ATOM      4  C4  <0> d           2.402   0.023  -0.021  0.00  0.00     0.087 A 
ATOM      5  C5  <0> d           1.198  -0.687  -0.013  0.00  0.00    -0.032 A 
ATOM      6  C6  <0> d           0.002  -0.004   0.002  0.00  0.00     0.036 A 
ATOM      7 Cl1  <0> d          -1.493  -0.886   0.012  0.00  0.00    -0.084 Cl
ATOM      8  N1  <0> d           3.707  -0.350  -0.035  0.00  0.00    -0.233 NA
ATOM      9  C7  <0> d           4.464   0.709  -0.037  0.00  0.00     0.107 A 
ATOM     10  N2  <0> d           3.697   1.832  -0.023  0.00  0.00    -0.333 N 
ATOM     11  H1  <0> d          -0.961   1.908   0.026  0.00  0.00     0.086 H 
ATOM     12  H2  <0> d           1.140   3.179   0.008  0.00  0.00     0.087 H 
ATOM     13  H3  <0> d           1.206  -1.767  -0.019  0.00  0.00     0.089 H 
ENDROOT
BRANCH   9  14
ATOM     14  C11 <0> d           5.971   0.692  -0.051  0.00  0.00    -0.009 C 
ATOM     15  H8  <0> d           6.349   1.575   0.464  0.00  0.00     0.044 H 
ATOM     16  H9  <0> d           6.330  -0.204   0.454  0.00  0.00     0.044 H 
BRANCH  14  17
ATOM     17  C12 <0> d           6.467   0.695  -1.499  0.00  0.00    -0.050 C 
ATOM     18  H10 <0> d           6.089  -0.188  -2.014  0.00  0.00     0.034 H 
ATOM     19  H11 <0> d           6.109   1.592  -2.004  0.00  0.00     0.034 H 
BRANCH  17  20
ATOM     20  C13 <0> d           7.997   0.679  -1.513  0.00  0.00     0.016 C 
ATOM     21  H12 <0> d           8.375   1.562  -0.998  0.00  0.00     0.049 H 
ATOM     22  H13 <0> d           8.356  -0.218  -1.008  0.00  0.00     0.049 H 
BRANCH  20  23
ATOM     23  C14 <0> d           8.486   0.681  -2.939  0.00  0.00     0.172 C 
ATOM     24  O3  <0> d           7.685   0.695  -3.858  0.00  0.00    -0.648 OA
ATOM     25  O4  <0> d           9.682   0.670  -3.173  0.00  0.00    -0.648 OA
ENDBRANCH  20  23
ENDBRANCH  17  20
ENDBRANCH  14  17
ENDBRANCH   9  14
BRANCH  10  26
ATOM     26  C8  <0> d           4.182   3.215  -0.021  0.00  0.00     0.010 C 
ATOM     27  H4  <0> d           5.137   3.266  -0.544  0.00  0.00     0.065 H 
ATOM     28  H5  <0> d           3.458   3.855  -0.524  0.00  0.00     0.065 H 
BRANCH  26  29
ATOM     29  C9  <0> d           4.365   3.688   1.423  0.00  0.00     0.031 C 
ATOM     30  H6  <0> d           3.410   3.637   1.946  0.00  0.00     0.051 H 
ATOM     31  H7  <0> d           5.090   3.047   1.926  0.00  0.00     0.051 H 
BRANCH  29  32
ATOM     32  C10 <0> d           4.864   5.110   1.426  0.00  0.00     0.174 C 
ATOM     33  O1  <0> d           5.056   5.691   0.371  0.00  0.00    -0.648 OA
ATOM     34  O2  <0> d           5.077   5.679   2.483  0.00  0.00    -0.648 OA
ENDBRANCH  29  32
ENDBRANCH  26  29
ENDBRANCH  10  26
TORSDOF 7
