REMARK  11 active torsions:
REMARK  status: ('A' for Active; 'I' for Inactive)
REMARK    1  A    between atoms: C1_1  and  C2_2 
REMARK    2  A    between atoms: C2_2  and  C3_4 
REMARK    3  A    between atoms: C2_2  and  C12_15 
REMARK    4  A    between atoms: C3_4  and  N1_5 
REMARK    5  A    between atoms: N1_5  and  C4_6 
REMARK       I    between atoms: N1_5  and  C7_9 
REMARK    6  A    between atoms: C7_9  and  C8_11 
REMARK    7  A    between atoms: C8_11  and  C9_12 
REMARK    8  A    between atoms: C8_11  and  C10_13 
REMARK    9  A    between atoms: C8_11  and  C11_14 
REMARK   10  A    between atoms: C12_15  and  O3_17 
REMARK   11  A    between atoms: O3_17  and  C13_18 
ROOT
ATOM      1  N1  <0> d          -2.303  -0.570   3.723  0.00  0.00    -0.346 N 
ATOM      2  C7  <0> d          -1.399   0.140   3.018  0.00  0.00     0.227 C 
ATOM      3  O1  <0> d          -0.616  -0.431   2.288  0.00  0.00    -0.273 OA
ENDROOT
BRANCH   1   4
ATOM      4  C3  <0> d          -1.988  -1.933   4.156  0.00  0.00     0.010 C 
ATOM      5  H5  <0> d          -2.514  -2.149   5.086  0.00  0.00     0.065 H 
ATOM      6  H6  <0> d          -0.914  -2.024   4.317  0.00  0.00     0.065 H 
BRANCH   4   7
ATOM      7  C2  <0> d          -2.429  -2.926   3.079  0.00  0.00     0.042 C 
ATOM      8  H1  <0> d          -3.485  -2.774   2.855  0.00  0.00     0.057 H 
BRANCH   7   9
ATOM      9  C1  <0> d          -1.601  -2.703   1.811  0.00  0.00    -0.063 C 
ATOM     10  H2  <0> d          -0.545  -2.854   2.035  0.00  0.00     0.028 H 
ATOM     11  H3  <0> d          -1.915  -3.410   1.044  0.00  0.00     0.028 H 
ATOM     12  H4  <0> d          -1.754  -1.685   1.452  0.00  0.00     0.028 H 
ENDBRANCH   7   9
BRANCH   7  13
ATOM     13  C12 <0> d          -2.217  -4.333   3.576  0.00  0.00     0.263 C 
ATOM     14  O2  <0> d          -1.761  -4.522   4.678  0.00  0.00    -0.265 OA
BRANCH  13  15
ATOM     15  O3  <0> d          -2.536  -5.376   2.793  0.00  0.00    -0.326 OA
BRANCH  15  16
ATOM     16  C13 <0> d          -2.309  -6.681   3.328  0.00  0.00     0.013 C 
ATOM     17  H21 <0> d          -1.251  -6.801   3.559  0.00  0.00     0.067 H 
ATOM     18  H22 <0> d          -2.896  -6.808   4.238  0.00  0.00     0.067 H 
ATOM     19  H23 <0> d          -2.608  -7.431   2.596  0.00  0.00     0.067 H 
ENDBRANCH  15  16
ENDBRANCH  13  15
ENDBRANCH   7  13
ENDBRANCH   4   7
ENDBRANCH   1   4
BRANCH   1  20
ATOM     20  C4  <0> d          -3.601   0.023   4.054  0.00  0.00     0.015 A 
ATOM     21  C6  <0> d          -3.761   0.641   5.445  0.00  0.00    -0.044 A 
ATOM     22  C5  <0> d          -3.664   1.543   4.213  0.00  0.00    -0.044 A 
ATOM     23  H10 <0> d          -4.735   0.550   5.927  0.00  0.00     0.036 H 
ATOM     24  H11 <0> d          -2.901   0.607   6.113  0.00  0.00     0.036 H 
ATOM     25  H8  <0> d          -2.740   2.103   4.070  0.00  0.00     0.036 H 
ATOM     26  H9  <0> d          -4.574   2.046   3.885  0.00  0.00     0.036 H 
ATOM     27  H7  <0> d          -4.470  -0.475   3.622  0.00  0.00     0.072 H 
ENDBRANCH   1  20
BRANCH   2  28
ATOM     28  C8  <0> d          -1.361   1.641   3.138  0.00  0.00     0.030 C 
BRANCH  28  29
ATOM     29  C9  <0> d          -0.122   2.179   2.419  0.00  0.00    -0.061 C 
ATOM     30  H12 <0> d          -0.163   1.899   1.366  0.00  0.00     0.029 H 
ATOM     31  H13 <0> d          -0.094   3.265   2.505  0.00  0.00     0.029 H 
ATOM     32  H14 <0> d           0.774   1.755   2.872  0.00  0.00     0.029 H 
ENDBRANCH  28  29
BRANCH  28  33
ATOM     33  C10 <0> d          -2.618   2.236   2.501  0.00  0.00    -0.061 C 
ATOM     34  H15 <0> d          -3.442   1.529   2.595  0.00  0.00     0.029 H 
ATOM     35  H16 <0> d          -2.877   3.166   3.008  0.00  0.00     0.029 H 
ATOM     36  H17 <0> d          -2.431   2.437   1.446  0.00  0.00     0.029 H 
ENDBRANCH  28  33
BRANCH  28  37
ATOM     37  C11 <0> d          -1.303   2.034   4.615  0.00  0.00    -0.061 C 
ATOM     38  H18 <0> d          -0.397   2.610   4.803  0.00  0.00     0.029 H 
ATOM     39  H19 <0> d          -2.175   2.638   4.865  0.00  0.00     0.029 H 
ATOM     40  H20 <0> d          -1.295   1.134   5.231  0.00  0.00     0.029 H 
ENDBRANCH  28  37
ENDBRANCH   2  28
TORSDOF 11
