REMARK  10 active torsions:
REMARK  status: ('A' for Active; 'I' for Inactive)
REMARK    1  A    between atoms: C1_1  and  C2_2 
REMARK    2  A    between atoms: C2_2  and  C3_4 
REMARK    3  A    between atoms: C2_2  and  C10_14 
REMARK    4  A    between atoms: C3_4  and  N1_5 
REMARK    5  A    between atoms: N1_5  and  C4_6 
REMARK       I    between atoms: N1_5  and  C7_9 
REMARK    6  A    between atoms: C7_9  and  C8_11 
REMARK    7  A    between atoms: C8_11  and  O2_12 
REMARK    8  A    between atoms: O2_12  and  C9_13 
REMARK    9  A    between atoms: C10_14  and  O4_16 
REMARK   10  A    between atoms: O4_16  and  C11_17 
ROOT
ATOM      1  N1  <0> d          -2.106  -0.148  -1.231  0.00  0.00    -0.345 N 
ATOM      2  C7  <0> d          -2.725   1.048  -1.179  0.00  0.00     0.243 C 
ATOM      3  O1  <0> d          -2.621   1.742  -0.189  0.00  0.00    -0.271 OA
ENDROOT
BRANCH   1   4
ATOM      4  C3  <0> d          -1.391  -0.654  -0.057  0.00  0.00     0.010 C 
ATOM      5  H5  <0> d          -1.423  -1.744  -0.054  0.00  0.00     0.065 H 
ATOM      6  H6  <0> d          -1.865  -0.275   0.849  0.00  0.00     0.065 H 
BRANCH   4   7
ATOM      7  C2  <0> d           0.065  -0.187  -0.105  0.00  0.00     0.042 C 
ATOM      8  H1  <0> d           0.513  -0.490  -1.051  0.00  0.00     0.057 H 
BRANCH   7   9
ATOM      9  C1  <0> d           0.115   1.338   0.017  0.00  0.00    -0.063 C 
ATOM     10  H2  <0> d           1.152   1.671  -0.017  0.00  0.00     0.028 H 
ATOM     11  H3  <0> d          -0.438   1.787  -0.807  0.00  0.00     0.028 H 
ATOM     12  H4  <0> d          -0.333   1.641   0.963  0.00  0.00     0.028 H 
ENDBRANCH   7   9
BRANCH   7  13
ATOM     13  C10 <0> d           0.830  -0.807   1.036  0.00  0.00     0.263 C 
ATOM     14  O3  <0> d           0.268  -1.548   1.808  0.00  0.00    -0.265 OA
BRANCH  13  15
ATOM     15  O4  <0> d           2.135  -0.537   1.194  0.00  0.00    -0.326 OA
BRANCH  15  16
ATOM     16  C11 <0> d           2.798  -1.160   2.296  0.00  0.00     0.013 C 
ATOM     17  H17 <0> d           2.321  -0.854   3.227  0.00  0.00     0.067 H 
ATOM     18  H18 <0> d           2.733  -2.243   2.194  0.00  0.00     0.067 H 
ATOM     19  H19 <0> d           3.845  -0.858   2.308  0.00  0.00     0.067 H 
ENDBRANCH  15  16
ENDBRANCH  13  15
ENDBRANCH   7  13
ENDBRANCH   4   7
ENDBRANCH   1   4
BRANCH   1  20
ATOM     20  C4  <0> d          -2.148  -0.942  -2.461  0.00  0.00     0.015 A 
ATOM     21  C6  <0> d          -0.828  -1.169  -3.201  0.00  0.00    -0.044 A 
ATOM     22  C5  <0> d          -1.484  -2.320  -2.436  0.00  0.00    -0.044 A 
ATOM     23  H10 <0> d          -0.861  -1.205  -4.290  0.00  0.00     0.036 H 
ATOM     24  H11 <0> d           0.072  -0.728  -2.772  0.00  0.00     0.036 H 
ATOM     25  H8  <0> d          -1.016  -2.636  -1.504  0.00  0.00     0.036 H 
ATOM     26  H9  <0> d          -1.949  -3.113  -3.022  0.00  0.00     0.036 H 
ATOM     27  H7  <0> d          -3.049  -0.828  -3.064  0.00  0.00     0.072 H 
ENDBRANCH   1  20
BRANCH   2  28
ATOM     28  C8  <0> d          -3.545   1.524  -2.350  0.00  0.00     0.092 C 
ATOM     29  H12 <0> d          -2.933   1.509  -3.252  0.00  0.00     0.088 H 
ATOM     30  H13 <0> d          -4.404   0.866  -2.483  0.00  0.00     0.088 H 
BRANCH  28  31
ATOM     31  O2  <0> d          -3.999   2.856  -2.104  0.00  0.00    -0.387 OA
BRANCH  31  32
ATOM     32  C9  <0> d          -4.790   3.405  -3.160  0.00  0.00     0.005 C 
ATOM     33  H14 <0> d          -4.204   3.429  -4.079  0.00  0.00     0.066 H 
ATOM     34  H15 <0> d          -5.675   2.786  -3.310  0.00  0.00     0.066 H 
ATOM     35  H16 <0> d          -5.096   4.417  -2.897  0.00  0.00     0.066 H 
ENDBRANCH  31  32
ENDBRANCH  28  31
ENDBRANCH   2  28
TORSDOF 10
