REMARK  11 active torsions:
REMARK  status: ('A' for Active; 'I' for Inactive)
REMARK    1  A    between atoms: C1_1  and  C2_2 
REMARK    2  A    between atoms: C7_8  and  N1_10 
REMARK    3  A    between atoms: N1_10  and  C8_11 
REMARK       I    between atoms: N1_10  and  C13_19 
REMARK    4  A    between atoms: C8_11  and  C9_12 
REMARK    5  A    between atoms: C9_12  and  C10_14 
REMARK    6  A    between atoms: C9_12  and  C11_15 
REMARK    7  A    between atoms: C11_15  and  O2_17 
REMARK    8  A    between atoms: O2_17  and  C12_18 
REMARK    9  A    between atoms: C13_19  and  C14_21 
REMARK   10  A    between atoms: C14_21  and  O4_22 
REMARK   11  A    between atoms: O4_22  and  C15_23 
ROOT
ATOM      1  N1  <0> d           2.122   0.015   1.264  0.00  0.00    -0.344 N 
ATOM      2  C13 <0> d           2.917  -0.603   0.368  0.00  0.00     0.243 C 
ATOM      3  O3  <0> d           4.121  -0.473   0.434  0.00  0.00    -0.271 OA
ENDROOT
BRANCH   1   4
ATOM      4  C7  <0> d           0.673  -0.199   1.229  0.00  0.00     0.018 C 
ATOM      5  C2  <0> d           0.180  -0.586   2.624  0.00  0.00    -0.038 C 
ATOM      6  H1  <0> d          -0.898  -0.745   2.598  0.00  0.00     0.042 H 
ATOM      7  C3  <0> d           0.505   0.538   3.610  0.00  0.00    -0.060 C 
ATOM      8  C4  <0> d          -0.189   1.826   3.162  0.00  0.00    -0.065 C 
ATOM      9  H7  <0> d           0.154   0.263   4.604  0.00  0.00     0.033 H 
ATOM     10  H8  <0> d           1.583   0.697   3.636  0.00  0.00     0.033 H 
ATOM     11  C5  <0> d           0.304   2.212   1.766  0.00  0.00    -0.063 C 
ATOM     12  H9  <0> d          -1.267   1.667   3.135  0.00  0.00     0.033 H 
ATOM     13  H10 <0> d           0.043   2.627   3.864  0.00  0.00     0.033 H 
ATOM     14  C6  <0> d          -0.021   1.088   0.781  0.00  0.00    -0.046 C 
ATOM     15  H11 <0> d          -0.191   3.130   1.447  0.00  0.00     0.033 H 
ATOM     16  H12 <0> d           1.382   2.372   1.793  0.00  0.00     0.033 H 
ATOM     17  H13 <0> d          -1.099   0.929   0.754  0.00  0.00     0.036 H 
ATOM     18  H14 <0> d           0.330   1.364  -0.214  0.00  0.00     0.036 H 
ATOM     19  H2  <0> d           0.441  -1.000   0.527  0.00  0.00     0.073 H 
BRANCH   5  20
ATOM     20  C1  <0> d           0.875  -1.873   3.072  0.00  0.00    -0.071 C 
ATOM     21  H4  <0> d           1.952  -1.714   3.099  0.00  0.00     0.028 H 
ATOM     22  H5  <0> d           0.523  -2.149   4.067  0.00  0.00     0.028 H 
ATOM     23  H6  <0> d           0.643  -2.675   2.370  0.00  0.00     0.028 H 
ENDBRANCH   5  20
ENDBRANCH   1   4
BRANCH   1  24
ATOM     24  C8  <0> d           2.707   0.900   2.275  0.00  0.00     0.010 C 
ATOM     25  H15 <0> d           3.493   1.502   1.819  0.00  0.00     0.065 H 
ATOM     26  H16 <0> d           1.933   1.555   2.675  0.00  0.00     0.065 H 
BRANCH  24  27
ATOM     27  C9  <0> d           3.300   0.059   3.407  0.00  0.00     0.042 C 
ATOM     28  H3  <0> d           2.515  -0.547   3.859  0.00  0.00     0.057 H 
BRANCH  27  29
ATOM     29  C10 <0> d           4.391  -0.855   2.846  0.00  0.00    -0.063 C 
ATOM     30  H17 <0> d           5.176  -0.249   2.393  0.00  0.00     0.028 H 
ATOM     31  H18 <0> d           4.814  -1.454   3.653  0.00  0.00     0.028 H 
ATOM     32  H19 <0> d           3.961  -1.514   2.092  0.00  0.00     0.028 H 
ENDBRANCH  27  29
BRANCH  27  33
ATOM     33  C11 <0> d           3.896   0.970   4.450  0.00  0.00     0.263 C 
ATOM     34  O1  <0> d           3.850   2.168   4.302  0.00  0.00    -0.265 OA
BRANCH  33  35
ATOM     35  O2  <0> d           4.477   0.450   5.542  0.00  0.00    -0.326 OA
BRANCH  35  36
ATOM     36  C12 <0> d           5.020   1.372   6.489  0.00  0.00     0.013 C 
ATOM     37  H20 <0> d           5.458   0.822   7.322  0.00  0.00     0.067 H 
ATOM     38  H21 <0> d           5.789   1.976   6.008  0.00  0.00     0.067 H 
ATOM     39  H22 <0> d           4.227   2.022   6.860  0.00  0.00     0.067 H 
ENDBRANCH  35  36
ENDBRANCH  33  35
ENDBRANCH  27  33
ENDBRANCH  24  27
ENDBRANCH   1  24
BRANCH   2  40
ATOM     40  C14 <0> d           2.309  -1.455  -0.716  0.00  0.00     0.092 C 
ATOM     41  H23 <0> d           1.671  -2.216  -0.267  0.00  0.00     0.088 H 
ATOM     42  H24 <0> d           1.714  -0.828  -1.380  0.00  0.00     0.088 H 
BRANCH  40  43
ATOM     43  O4  <0> d           3.350  -2.087  -1.464  0.00  0.00    -0.387 OA
BRANCH  43  44
ATOM     44  C15 <0> d           2.879  -2.923  -2.524  0.00  0.00     0.005 C 
ATOM     45  H25 <0> d           2.253  -3.714  -2.111  0.00  0.00     0.066 H 
ATOM     46  H26 <0> d           2.295  -2.327  -3.225  0.00  0.00     0.066 H 
ATOM     47  H27 <0> d           3.729  -3.366  -3.043  0.00  0.00     0.066 H 
ENDBRANCH  43  44
ENDBRANCH  40  43
ENDBRANCH   2  40
TORSDOF 11
