REMARK  7 active torsions:
REMARK  status: ('A' for Active; 'I' for Inactive)
REMARK    1  A    between atoms: C1_1  and  C2_2 
REMARK    2  A    between atoms: C2_2  and  C3_4 
REMARK    3  A    between atoms: C2_2  and  O3_26 
REMARK    4  A    between atoms: C3_4  and  N1_5 
REMARK    5  A    between atoms: C9_12  and  O2_16 
REMARK    6  A    between atoms: O2_16  and  C12_17 
REMARK    7  A    between atoms: C12_17  and  C13_18 
ROOT
ATOM      1  N1  <0> d           0.866  -1.969   1.174  0.00  0.00    -0.324 N 
ATOM      2  C4  <0> d          -0.103  -2.935   1.703  0.00  0.00     0.125 A 
ATOM      3  H2  <0> d          -1.067  -2.806   1.211  0.00  0.00     0.104 H 
ATOM      4  C5  <0> d           0.455  -4.303   1.397  0.00  0.00    -0.003 A 
ATOM      5  C6  <0> d           0.007  -5.579   1.641  0.00  0.00    -0.073 A 
ATOM      6  C7  <0> d           0.758  -6.670   1.231  0.00  0.00    -0.080 A 
ATOM      7  C8  <0> d           1.960  -6.482   0.576  0.00  0.00    -0.050 A 
ATOM      8  C9  <0> d           2.424  -5.200   0.322  0.00  0.00     0.085 A 
ATOM      9  C10 <0> d           1.669  -4.094   0.735  0.00  0.00     0.074 A 
ATOM     10  C11 <0> d           1.885  -2.643   0.612  0.00  0.00     0.258 A 
ATOM     11  O1  <0> d           2.849  -2.127   0.080  0.00  0.00    -0.267 OA
ATOM     12  C19 <0> d          -0.250  -2.760   3.157  0.00  0.00     0.089 C 
ATOM     13  N2  <0> d          -0.363  -2.626   4.279  0.00  0.00    -0.195 NA
ATOM     14  H8  <0> d          -0.931  -5.732   2.153  0.00  0.00     0.084 H 
ATOM     15  H9  <0> d           0.403  -7.671   1.425  0.00  0.00     0.083 H 
ATOM     16  H10 <0> d           2.539  -7.336   0.260  0.00  0.00     0.087 H 
ENDROOT
BRANCH   1  17
ATOM     17  C3  <0> d           0.742  -0.511   1.242  0.00  0.00     0.023 C 
ATOM     18  H6  <0> d           1.735  -0.063   1.280  0.00  0.00     0.068 H 
ATOM     19  H7  <0> d           0.184  -0.235   2.136  0.00  0.00     0.068 H 
BRANCH  17  20
ATOM     20  C2  <0> d           0.002  -0.004   0.002  0.00  0.00     0.047 C 
ATOM     21  H1  <0> d           0.512  -0.356  -0.895  0.00  0.00     0.084 H 
BRANCH  20  22
ATOM     22  C1  <0> d          -0.019   1.526   0.010  0.00  0.00    -0.051 C 
ATOM     23  H3  <0> d           1.004   1.903   0.003  0.00  0.00     0.030 H 
ATOM     24  H4  <0> d          -0.546   1.887  -0.873  0.00  0.00     0.030 H 
ATOM     25  H5  <0> d          -0.529   1.877   0.907  0.00  0.00     0.030 H 
ENDBRANCH  20  22
BRANCH  20  26
ATOM     26  O3  <0> d          -1.339  -0.499   0.012  0.00  0.00    -0.394 OA
ATOM     27  H18 <0> d          -1.853  -0.225   0.784  0.00  0.00     0.210 HD
ENDBRANCH  20  26
ENDBRANCH  17  20
ENDBRANCH   1  17
BRANCH   8  28
ATOM     28  O2  <0> d           3.604  -5.018  -0.321  0.00  0.00    -0.346 OA
BRANCH  28  29
ATOM     29  C12 <0> d           4.319  -6.192  -0.711  0.00  0.00     0.050 C 
ATOM     30  H11 <0> d           4.556  -6.783   0.174  0.00  0.00     0.082 H 
ATOM     31  H12 <0> d           3.704  -6.784  -1.389  0.00  0.00     0.082 H 
BRANCH  29  32
ATOM     32  C13 <0> d           5.596  -5.796  -1.407  0.00  0.00    -0.034 A 
ATOM     33  C18 <0> d           6.754  -5.614  -0.675  0.00  0.00    -0.075 A 
ATOM     34  C17 <0> d           7.926  -5.254  -1.314  0.00  0.00    -0.082 A 
ATOM     35  H17 <0> d           6.745  -5.756   0.396  0.00  0.00     0.084 H 
ATOM     36  C16 <0> d           7.937  -5.068  -2.684  0.00  0.00    -0.083 A 
ATOM     37  H16 <0> d           8.832  -5.116  -0.743  0.00  0.00     0.083 H 
ATOM     38  C15 <0> d           6.778  -5.245  -3.415  0.00  0.00    -0.082 A 
ATOM     39  H15 <0> d           8.852  -4.784  -3.183  0.00  0.00     0.083 H 
ATOM     40  C14 <0> d           5.607  -5.608  -2.776  0.00  0.00    -0.075 A 
ATOM     41  H14 <0> d           6.786  -5.099  -4.485  0.00  0.00     0.083 H 
ATOM     42  H13 <0> d           4.701  -5.747  -3.348  0.00  0.00     0.084 H 
ENDBRANCH  29  32
ENDBRANCH  28  29
ENDBRANCH   8  28
TORSDOF 7
