REMARK  10 active torsions:
REMARK  status: ('A' for Active; 'I' for Inactive)
REMARK    1  A    between atoms: C1_1  and  C2_2 
REMARK    2  A    between atoms: C2_2  and  C3_4 
REMARK    3  A    between atoms: C2_2  and  C14_18 
REMARK    4  A    between atoms: C3_4  and  N1_5 
REMARK    5  A    between atoms: N1_5  and  C4_6 
REMARK       I    between atoms: N1_5  and  C11_13 
REMARK    6  A    between atoms: C11_13  and  C12_15 
REMARK    7  A    between atoms: C12_15  and  O2_16 
REMARK    8  A    between atoms: O2_16  and  C13_17 
REMARK    9  A    between atoms: C14_18  and  O4_20 
REMARK   10  A    between atoms: O4_20  and  C15_21 
ROOT
ATOM      1  N1  <0> d           2.470  -0.166   1.080  0.00  0.00    -0.345 N 
ATOM      2  C11 <0> d           3.050  -0.753   0.015  0.00  0.00     0.243 C 
ATOM      3  O1  <0> d           2.433  -1.565  -0.641  0.00  0.00    -0.271 OA
ENDROOT
BRANCH   1   4
ATOM      4  C3  <0> d           1.114  -0.551   1.480  0.00  0.00     0.010 C 
ATOM      5  H5  <0> d           0.998  -0.411   2.555  0.00  0.00     0.065 H 
ATOM      6  H6  <0> d           0.945  -1.599   1.230  0.00  0.00     0.065 H 
BRANCH   4   7
ATOM      7  C2  <0> d           0.097   0.320   0.740  0.00  0.00     0.042 C 
ATOM      8  H1  <0> d           0.254   0.228  -0.335  0.00  0.00     0.057 H 
BRANCH   7   9
ATOM      9  C1  <0> d           0.276   1.780   1.159  0.00  0.00    -0.063 C 
ATOM     10  H2  <0> d           1.318   2.072   1.024  0.00  0.00     0.028 H 
ATOM     11  H3  <0> d          -0.362   2.416   0.544  0.00  0.00     0.028 H 
ATOM     12  H4  <0> d          -0.000   1.894   2.207  0.00  0.00     0.028 H 
ENDBRANCH   7   9
BRANCH   7  13
ATOM     13  C14 <0> d          -1.298  -0.134   1.085  0.00  0.00     0.263 C 
ATOM     14  O3  <0> d          -1.462  -1.059   1.844  0.00  0.00    -0.265 OA
BRANCH  13  15
ATOM     15  O4  <0> d          -2.359   0.490   0.548  0.00  0.00    -0.326 OA
BRANCH  15  16
ATOM     16  C15 <0> d          -3.652   0.007   0.918  0.00  0.00     0.013 C 
ATOM     17  H25 <0> d          -3.747  -1.038   0.625  0.00  0.00     0.067 H 
ATOM     18  H26 <0> d          -3.776   0.094   1.998  0.00  0.00     0.067 H 
ATOM     19  H27 <0> d          -4.418   0.597   0.415  0.00  0.00     0.067 H 
ENDBRANCH  15  16
ENDBRANCH  13  15
ENDBRANCH   7  13
ENDBRANCH   4   7
ENDBRANCH   1   4
BRANCH   1  20
ATOM     20  C4  <0> d           3.194   0.856   1.839  0.00  0.00     0.015 C 
ATOM     21  C10 <0> d           4.267   0.217   2.586  0.00  0.00    -0.046 C 
ATOM     22  C9  <0> d           5.044   1.215   3.469  0.00  0.00    -0.063 C 
ATOM     23  H18 <0> d           3.840  -0.559   3.222  0.00  0.00     0.036 H 
ATOM     24  H19 <0> d           4.959  -0.247   1.884  0.00  0.00     0.036 H 
ATOM     25  C8  <0> d           6.026   1.956   2.602  0.00  0.00    -0.065 C 
ATOM     26  H16 <0> d           5.580   0.674   4.249  0.00  0.00     0.033 H 
ATOM     27  H17 <0> d           4.349   1.922   3.921  0.00  0.00     0.033 H 
ATOM     28  C7  <0> d           5.463   3.293   2.084  0.00  0.00    -0.065 C 
ATOM     29  H14 <0> d           6.287   1.329   1.750  0.00  0.00     0.033 H 
ATOM     30  H15 <0> d           6.928   2.154   3.181  0.00  0.00     0.033 H 
ATOM     31  C6  <0> d           3.993   3.188   1.633  0.00  0.00    -0.063 C 
ATOM     32  H12 <0> d           6.067   3.625   1.240  0.00  0.00     0.033 H 
ATOM     33  H13 <0> d           5.534   4.036   2.878  0.00  0.00     0.033 H 
ATOM     34  C5  <0> d           3.717   1.927   0.859  0.00  0.00    -0.046 C 
ATOM     35  H10 <0> d           3.755   4.046   1.005  0.00  0.00     0.033 H 
ATOM     36  H11 <0> d           3.352   3.209   2.514  0.00  0.00     0.033 H 
ATOM     37  H8  <0> d           4.637   1.577   0.391  0.00  0.00     0.036 H 
ATOM     38  H9  <0> d           2.965   2.123   0.095  0.00  0.00     0.036 H 
ATOM     39  H7  <0> d           2.507   1.328   2.541  0.00  0.00     0.072 H 
ENDBRANCH   1  20
BRANCH   2  40
ATOM     40  C12 <0> d           4.466  -0.399  -0.362  0.00  0.00     0.092 C 
ATOM     41  H20 <0> d           4.506   0.640  -0.689  0.00  0.00     0.088 H 
ATOM     42  H21 <0> d           5.116  -0.533   0.502  0.00  0.00     0.088 H 
BRANCH  40  43
ATOM     43  O2  <0> d           4.903  -1.250  -1.423  0.00  0.00    -0.387 OA
BRANCH  43  44
ATOM     44  C13 <0> d           6.240  -0.996  -1.858  0.00  0.00     0.005 C 
ATOM     45  H22 <0> d           6.317   0.030  -2.217  0.00  0.00     0.066 H 
ATOM     46  H23 <0> d           6.927  -1.143  -1.025  0.00  0.00     0.066 H 
ATOM     47  H24 <0> d           6.496  -1.683  -2.665  0.00  0.00     0.066 H 
ENDBRANCH  43  44
ENDBRANCH  40  43
ENDBRANCH   2  40
TORSDOF 10
