REMARK  7 active torsions:
REMARK  status: ('A' for Active; 'I' for Inactive)
REMARK    1  A    between atoms: C1_1  and  O1_2 
REMARK    2  A    between atoms: O1_2  and  C2_3 
REMARK    3  A    between atoms: C2_3  and  C3_5 
REMARK    4  A    between atoms: C3_5  and  C4_6 
REMARK    5  A    between atoms: C4_6  and  N1_7 
REMARK    6  A    between atoms: N1_7  and  C5_8 
REMARK       I    between atoms: N1_7  and  C10_13 
REMARK    7  A    between atoms: C10_13  and  C11_15 
ROOT
ATOM      1  N1  <0> d           1.761  -4.154   3.073  0.00  0.00    -0.343 N 
ATOM      2  C10 <0> d           0.509  -4.652   3.108  0.00  0.00     0.257 C 
ATOM      3  O3  <0> d           0.272  -5.739   2.618  0.00  0.00    -0.267 OA
ENDROOT
BRANCH   1   4
ATOM      4  C4  <0> d           2.054  -2.862   3.697  0.00  0.00     0.007 C 
ATOM      5  H6  <0> d           2.916  -2.964   4.356  0.00  0.00     0.065 H 
ATOM      6  H7  <0> d           1.190  -2.534   4.277  0.00  0.00     0.065 H 
BRANCH   4   7
ATOM      7  C3  <0> d           2.361  -1.829   2.611  0.00  0.00     0.031 C 
ATOM      8  H4  <0> d           1.498  -1.727   1.952  0.00  0.00     0.050 H 
ATOM      9  H5  <0> d           3.224  -2.156   2.032  0.00  0.00     0.050 H 
BRANCH   7  10
ATOM     10  C2  <0> d           2.662  -0.499   3.254  0.00  0.00     0.259 C 
ATOM     11  O2  <0> d           2.634  -0.389   4.457  0.00  0.00    -0.265 OA
BRANCH  10  12
ATOM     12  O1  <0> d           2.961   0.563   2.489  0.00  0.00    -0.326 OA
BRANCH  12  13
ATOM     13  C1  <0> d           3.236   1.792   3.165  0.00  0.00     0.013 C 
ATOM     14  H1  <0> d           4.090   1.659   3.829  0.00  0.00     0.067 H 
ATOM     15  H2  <0> d           3.462   2.567   2.433  0.00  0.00     0.067 H 
ATOM     16  H3  <0> d           2.364   2.088   3.750  0.00  0.00     0.067 H 
ENDBRANCH  12  13
ENDBRANCH  10  12
ENDBRANCH   7  10
ENDBRANCH   4   7
ENDBRANCH   1   4
BRANCH   1  17
ATOM     17  C5  <0> d           2.829  -4.906   2.409  0.00  0.00     0.015 C 
ATOM     18  C9  <0> d           2.952  -6.308   3.032  0.00  0.00    -0.046 C 
ATOM     19  C8  <0> d           2.676  -7.319   1.899  0.00  0.00    -0.063 C 
ATOM     20  H15 <0> d           3.957  -6.455   3.426  0.00  0.00     0.036 H 
ATOM     21  H16 <0> d           2.217  -6.429   3.827  0.00  0.00     0.036 H 
ATOM     22  C7  <0> d           3.007  -6.536   0.604  0.00  0.00    -0.063 C 
ATOM     23  H13 <0> d           1.629  -7.622   1.905  0.00  0.00     0.033 H 
ATOM     24  H14 <0> d           3.327  -8.188   1.996  0.00  0.00     0.033 H 
ATOM     25  C6  <0> d           2.483  -5.114   0.920  0.00  0.00    -0.046 C 
ATOM     26  H11 <0> d           2.478  -6.961  -0.250  0.00  0.00     0.033 H 
ATOM     27  H12 <0> d           4.082  -6.522   0.425  0.00  0.00     0.033 H 
ATOM     28  H9  <0> d           1.405  -5.061   0.768  0.00  0.00     0.036 H 
ATOM     29  H10 <0> d           2.993  -4.373   0.303  0.00  0.00     0.036 H 
ATOM     30  H8  <0> d           3.775  -4.372   2.503  0.00  0.00     0.072 H 
ENDBRANCH   1  17
BRANCH   2  31
ATOM     31  C11 <0> d          -0.575  -3.877   3.743  0.00  0.00     0.074 A 
ATOM     32  C16 <0> d          -1.627  -4.538   4.385  0.00  0.00     0.173 A 
ATOM     33  C15 <0> d          -2.637  -3.804   4.982  0.00  0.00     0.194 A 
ATOM     34  F1  <0> d          -1.655  -5.888   4.427  0.00  0.00    -0.202 F 
ATOM     35  C14 <0> d          -2.611  -2.419   4.934  0.00  0.00     0.158 A 
ATOM     36  F2  <0> d          -3.653  -4.439   5.608  0.00  0.00    -0.200 F 
ATOM     37  C13 <0> d          -1.571  -1.761   4.293  0.00  0.00    -0.041 A 
ATOM     38  F3  <0> d          -3.602  -1.706   5.513  0.00  0.00    -0.203 F 
ATOM     39  C12 <0> d          -0.557  -2.481   3.700  0.00  0.00    -0.062 A 
ATOM     40  H18 <0> d          -1.556  -0.682   4.260  0.00  0.00     0.088 H 
ATOM     41  H17 <0> d           0.251  -1.965   3.202  0.00  0.00     0.085 H 
ENDBRANCH   2  31
TORSDOF 7
