REMARK  8 active torsions:
REMARK  status: ('A' for Active; 'I' for Inactive)
REMARK    1  A    between atoms: C1_1  and  O1_2 
REMARK    2  A    between atoms: O1_2  and  C2_3 
REMARK    3  A    between atoms: C2_3  and  C3_5 
REMARK    4  A    between atoms: C3_5  and  C4_6 
REMARK    5  A    between atoms: C4_6  and  N1_7 
REMARK    6  A    between atoms: N1_7  and  C5_8 
REMARK       I    between atoms: N1_7  and  C10_15 
REMARK    7  A    between atoms: C5_8  and  C6_9 
REMARK    8  A    between atoms: C10_15  and  C11_17 
ROOT
ATOM      1  N1  <0> d           1.391  -3.969  -2.418  0.00  0.00    -0.345 N 
ATOM      2  C10 <0> d           2.468  -4.620  -1.937  0.00  0.00     0.257 C 
ATOM      3  O4  <0> d           2.592  -5.815  -2.129  0.00  0.00    -0.267 OA
ENDROOT
BRANCH   1   4
ATOM      4  C4  <0> d           1.290  -2.514  -2.273  0.00  0.00     0.006 C 
ATOM      5  H7  <0> d           0.717  -2.105  -3.105  0.00  0.00     0.065 H 
ATOM      6  H8  <0> d           2.289  -2.079  -2.271  0.00  0.00     0.065 H 
BRANCH   4   7
ATOM      7  C3  <0> d           0.585  -2.181  -0.956  0.00  0.00     0.031 C 
ATOM      8  H5  <0> d           1.158  -2.590  -0.124  0.00  0.00     0.050 H 
ATOM      9  H6  <0> d          -0.414  -2.616  -0.959  0.00  0.00     0.050 H 
BRANCH   7  10
ATOM     10  C2  <0> d           0.481  -0.685  -0.807  0.00  0.00     0.259 C 
ATOM     11  O2  <0> d           0.925   0.040  -1.666  0.00  0.00    -0.265 OA
BRANCH  10  12
ATOM     12  O1  <0> d          -0.104  -0.158   0.280  0.00  0.00    -0.326 OA
BRANCH  12  13
ATOM     13  C1  <0> d          -0.168   1.268   0.355  0.00  0.00     0.013 C 
ATOM     14  H2  <0> d           0.842   1.678   0.339  0.00  0.00     0.067 H 
ATOM     15  H3  <0> d          -0.730   1.652  -0.496  0.00  0.00     0.067 H 
ATOM     16  H4  <0> d          -0.664   1.561   1.280  0.00  0.00     0.067 H 
ENDBRANCH  12  13
ENDBRANCH  10  12
ENDBRANCH   7  10
ENDBRANCH   4   7
ENDBRANCH   1   4
BRANCH   1  17
ATOM     17  C5  <0> d           0.321  -4.714  -3.085  0.00  0.00     0.022 C 
ATOM     18  H9  <0> d           0.324  -5.746  -2.734  0.00  0.00     0.068 H 
ATOM     19  H10 <0> d          -0.640  -4.255  -2.855  0.00  0.00     0.068 H 
BRANCH  17  20
ATOM     20  C6  <0> d           0.549  -4.689  -4.598  0.00  0.00     0.054 C 
ATOM     21  H1  <0> d           0.647  -3.659  -4.940  0.00  0.00     0.085 H 
ATOM     22  O3  <0> d           1.734  -5.425  -4.923  0.00  0.00    -0.384 OA
ATOM     23  C9  <0> d           1.399  -6.546  -5.760  0.00  0.00     0.020 C 
ATOM     24  C8  <0> d           0.073  -6.149  -6.457  0.00  0.00    -0.043 C 
ATOM     25  H15 <0> d           1.255  -7.441  -5.154  0.00  0.00     0.074 H 
ATOM     26  H16 <0> d           2.181  -6.711  -6.500  0.00  0.00     0.074 H 
ATOM     27  C7  <0> d          -0.637  -5.368  -5.317  0.00  0.00    -0.037 C 
ATOM     28  H13 <0> d          -0.499  -7.032  -6.744  0.00  0.00     0.036 H 
ATOM     29  H14 <0> d           0.259  -5.507  -7.317  0.00  0.00     0.036 H 
ATOM     30  H11 <0> d          -1.159  -6.050  -4.646  0.00  0.00     0.036 H 
ATOM     31  H12 <0> d          -1.321  -4.624  -5.725  0.00  0.00     0.036 H 
ENDBRANCH  17  20
ENDBRANCH   1  17
BRANCH   2  32
ATOM     32  C11 <0> d           3.498  -3.885  -1.178  0.00  0.00     0.074 A 
ATOM     33  C16 <0> d           3.803  -4.259   0.135  0.00  0.00     0.173 A 
ATOM     34  C15 <0> d           4.773  -3.567   0.839  0.00  0.00     0.194 A 
ATOM     35  F1  <0> d           3.156  -5.295   0.712  0.00  0.00    -0.202 F 
ATOM     36  C14 <0> d           5.432  -2.500   0.247  0.00  0.00     0.158 A 
ATOM     37  F2  <0> d           5.075  -3.929   2.105  0.00  0.00    -0.200 F 
ATOM     38  C13 <0> d           5.127  -2.124  -1.053  0.00  0.00    -0.041 A 
ATOM     39  F3  <0> d           6.375  -1.824   0.940  0.00  0.00    -0.203 F 
ATOM     40  C12 <0> d           4.167  -2.808  -1.765  0.00  0.00    -0.062 A 
ATOM     41  H18 <0> d           5.644  -1.292  -1.508  0.00  0.00     0.088 H 
ATOM     42  H17 <0> d           3.933  -2.513  -2.777  0.00  0.00     0.085 H 
ENDBRANCH   2  32
TORSDOF 8
