REMARK  10 active torsions:
REMARK  status: ('A' for Active; 'I' for Inactive)
REMARK    1  A    between atoms: C1_1  and  C2_2 
REMARK    2  A    between atoms: C2_2  and  C3_3 
REMARK    3  A    between atoms: C2_2  and  C4_4 
REMARK    4  A    between atoms: C4_4  and  N1_5 
REMARK    5  A    between atoms: N1_5  and  C5_6 
REMARK       I    between atoms: N1_5  and  C9_12 
REMARK    6  A    between atoms: C5_6  and  C6_7 
REMARK    7  A    between atoms: C6_7  and  C7_8 
REMARK    8  A    between atoms: C7_8  and  O2_10 
REMARK    9  A    between atoms: O2_10  and  C8_11 
REMARK   10  A    between atoms: C9_12  and  C10_14 
ROOT
ATOM      1  N1  <0> d          -0.189  -0.017   2.254  0.00  0.00    -0.347 N 
ATOM      2  C9  <0> d           0.134   1.175   2.793  0.00  0.00     0.257 C 
ATOM      3  O3  <0> d           1.068   1.812   2.344  0.00  0.00    -0.267 OA
ENDROOT
BRANCH   1   4
ATOM      4  C4  <0> d           0.614  -0.569   1.161  0.00  0.00     0.001 C 
ATOM      5  H8  <0> d           0.671  -1.653   1.264  0.00  0.00     0.065 H 
ATOM      6  H9  <0> d           1.618  -0.147   1.199  0.00  0.00     0.065 H 
BRANCH   4   7
ATOM      7  C2  <0> d          -0.037  -0.217  -0.178  0.00  0.00    -0.045 C 
ATOM      8  H4  <0> d          -1.075  -0.550  -0.176  0.00  0.00     0.041 H 
BRANCH   7   9
ATOM      9  C1  <0> d           0.013   1.297  -0.387  0.00  0.00    -0.072 C 
ATOM     10  H1  <0> d           1.040   1.645  -0.281  0.00  0.00     0.028 H 
ATOM     11  H2  <0> d          -0.351   1.538  -1.386  0.00  0.00     0.028 H 
ATOM     12  H3  <0> d          -0.616   1.788   0.357  0.00  0.00     0.028 H 
ENDBRANCH   7   9
BRANCH   7  13
ATOM     13  C3  <0> d           0.720  -0.914  -1.312  0.00  0.00    -0.072 C 
ATOM     14  H5  <0> d           1.758  -0.581  -1.313  0.00  0.00     0.028 H 
ATOM     15  H6  <0> d           0.684  -1.993  -1.163  0.00  0.00     0.028 H 
ATOM     16  H7  <0> d           0.256  -0.663  -2.266  0.00  0.00     0.028 H 
ENDBRANCH   7  13
ENDBRANCH   4   7
ENDBRANCH   1   4
BRANCH   1  17
ATOM     17  C5  <0> d          -1.345  -0.761   2.763  0.00  0.00     0.006 C 
ATOM     18  H10 <0> d          -1.930  -0.118   3.421  0.00  0.00     0.065 H 
ATOM     19  H11 <0> d          -1.964  -1.085   1.927  0.00  0.00     0.065 H 
BRANCH  17  20
ATOM     20  C6  <0> d          -0.860  -1.984   3.543  0.00  0.00     0.031 C 
ATOM     21  H12 <0> d          -0.275  -2.627   2.885  0.00  0.00     0.050 H 
ATOM     22  H13 <0> d          -0.240  -1.660   4.379  0.00  0.00     0.050 H 
BRANCH  20  23
ATOM     23  C7  <0> d          -2.049  -2.749   4.066  0.00  0.00     0.259 C 
ATOM     24  O1  <0> d          -3.168  -2.357   3.838  0.00  0.00    -0.265 OA
BRANCH  23  25
ATOM     25  O2  <0> d          -1.863  -3.868   4.785  0.00  0.00    -0.326 OA
BRANCH  25  26
ATOM     26  C8  <0> d          -3.034  -4.542   5.249  0.00  0.00     0.013 C 
ATOM     27  H14 <0> d          -3.609  -3.873   5.890  0.00  0.00     0.067 H 
ATOM     28  H15 <0> d          -3.644  -4.840   4.396  0.00  0.00     0.067 H 
ATOM     29  H16 <0> d          -2.744  -5.427   5.815  0.00  0.00     0.067 H 
ENDBRANCH  25  26
ENDBRANCH  23  25
ENDBRANCH  20  23
ENDBRANCH  17  20
ENDBRANCH   1  17
BRANCH   2  30
ATOM     30  C10 <0> d          -0.645   1.709   3.927  0.00  0.00     0.074 A 
ATOM     31  C15 <0> d          -0.716   3.089   4.143  0.00  0.00     0.173 A 
ATOM     32  C14 <0> d          -1.453   3.581   5.205  0.00  0.00     0.194 A 
ATOM     33  F1  <0> d          -0.073   3.939   3.312  0.00  0.00    -0.202 F 
ATOM     34  C13 <0> d          -2.108   2.708   6.060  0.00  0.00     0.158 A 
ATOM     35  F2  <0> d          -1.530   4.914   5.414  0.00  0.00    -0.200 F 
ATOM     36  C12 <0> d          -2.034   1.338   5.852  0.00  0.00    -0.041 A 
ATOM     37  F3  <0> d          -2.822   3.192   7.100  0.00  0.00    -0.203 F 
ATOM     38  C11 <0> d          -1.309   0.837   4.794  0.00  0.00    -0.062 A 
ATOM     39  H18 <0> d          -2.547   0.664   6.521  0.00  0.00     0.088 H 
ATOM     40  H17 <0> d          -1.253  -0.230   4.634  0.00  0.00     0.085 H 
ENDBRANCH   2  30
TORSDOF 10
