REMARK  10 active torsions:
REMARK  status: ('A' for Active; 'I' for Inactive)
REMARK    1  A    between atoms: C1_1  and  C2_2 
REMARK    2  A    between atoms: C2_2  and  C3_4 
REMARK    3  A    between atoms: C2_2  and  C14_18 
REMARK    4  A    between atoms: C3_4  and  N1_5 
REMARK    5  A    between atoms: N1_5  and  C4_6 
REMARK       I    between atoms: N1_5  and  C11_13 
REMARK    6  A    between atoms: C11_13  and  C12_15 
REMARK    7  A    between atoms: C12_15  and  O2_16 
REMARK    8  A    between atoms: O2_16  and  C13_17 
REMARK    9  A    between atoms: C14_18  and  O4_20 
REMARK   10  A    between atoms: O4_20  and  C15_21 
ROOT
ATOM      1  N1  <0> d          -2.104  -0.152  -1.228  0.00  0.00    -0.345 N 
ATOM      2  C11 <0> d          -2.780   1.010  -1.325  0.00  0.00     0.243 C 
ATOM      3  O1  <0> d          -2.765   1.800  -0.405  0.00  0.00    -0.271 OA
ENDROOT
BRANCH   1   4
ATOM      4  C3  <0> d          -1.436  -0.507   0.027  0.00  0.00     0.010 C 
ATOM      5  H5  <0> d          -1.416  -1.592   0.133  0.00  0.00     0.065 H 
ATOM      6  H6  <0> d          -1.980  -0.070   0.864  0.00  0.00     0.065 H 
BRANCH   4   7
ATOM      7  C2  <0> d          -0.004   0.030   0.012  0.00  0.00     0.042 C 
ATOM      8  H1  <0> d           0.513  -0.338  -0.874  0.00  0.00     0.057 H 
BRANCH   7   9
ATOM      9  C1  <0> d          -0.032   1.559  -0.011  0.00  0.00    -0.063 C 
ATOM     10  H2  <0> d           0.988   1.942  -0.022  0.00  0.00     0.028 H 
ATOM     11  H3  <0> d          -0.557   1.899  -0.904  0.00  0.00     0.028 H 
ATOM     12  H4  <0> d          -0.549   1.927   0.875  0.00  0.00     0.028 H 
ENDBRANCH   7   9
BRANCH   7  13
ATOM     13  C14 <0> d           0.722  -0.440   1.247  0.00  0.00     0.263 C 
ATOM     14  O3  <0> d           0.151  -1.133   2.056  0.00  0.00    -0.265 OA
BRANCH  13  15
ATOM     15  O4  <0> d           2.001  -0.088   1.448  0.00  0.00    -0.326 OA
BRANCH  15  16
ATOM     16  C15 <0> d           2.626  -0.569   2.640  0.00  0.00     0.013 C 
ATOM     17  H25 <0> d           2.082  -0.202   3.510  0.00  0.00     0.067 H 
ATOM     18  H26 <0> d           2.619  -1.659   2.640  0.00  0.00     0.067 H 
ATOM     19  H27 <0> d           3.656  -0.213   2.679  0.00  0.00     0.067 H 
ENDBRANCH  15  16
ENDBRANCH  13  15
ENDBRANCH   7  13
ENDBRANCH   4   7
ENDBRANCH   1   4
BRANCH   1  20
ATOM     20  C4  <0> d          -2.036  -1.059  -2.376  0.00  0.00     0.015 C 
ATOM     21  C10 <0> d          -0.654  -1.151  -2.823  0.00  0.00    -0.046 C 
ATOM     22  C9  <0> d          -0.500  -2.038  -4.076  0.00  0.00    -0.063 C 
ATOM     23  H18 <0> d          -0.290  -0.149  -3.053  0.00  0.00     0.036 H 
ATOM     24  H19 <0> d          -0.050  -1.568  -2.018  0.00  0.00     0.036 H 
ATOM     25  C8  <0> d          -0.506  -3.479  -3.645  0.00  0.00    -0.065 C 
ATOM     26  H16 <0> d           0.443  -1.808  -4.573  0.00  0.00     0.033 H 
ATOM     27  H17 <0> d          -1.330  -1.856  -4.758  0.00  0.00     0.033 H 
ATOM     28  C7  <0> d          -1.909  -4.111  -3.721  0.00  0.00    -0.065 C 
ATOM     29  H14 <0> d          -0.146  -3.542  -2.618  0.00  0.00     0.033 H 
ATOM     30  H15 <0> d           0.170  -4.043  -4.288  0.00  0.00     0.033 H 
ATOM     31  C6  <0> d          -3.017  -3.170  -3.211  0.00  0.00    -0.063 C 
ATOM     32  H12 <0> d          -1.917  -5.022  -3.122  0.00  0.00     0.033 H 
ATOM     33  H13 <0> d          -2.120  -4.373  -4.758  0.00  0.00     0.033 H 
ATOM     34  C5  <0> d          -2.614  -2.429  -1.965  0.00  0.00    -0.046 C 
ATOM     35  H10 <0> d          -3.909  -3.759  -2.997  0.00  0.00     0.033 H 
ATOM     36  H11 <0> d          -3.252  -2.447  -3.991  0.00  0.00     0.033 H 
ATOM     37  H8  <0> d          -1.856  -2.999  -1.428  0.00  0.00     0.036 H 
ATOM     38  H9  <0> d          -3.485  -2.282  -1.328  0.00  0.00     0.036 H 
ATOM     39  H7  <0> d          -2.642  -0.650  -3.184  0.00  0.00     0.072 H 
ENDBRANCH   1  20
BRANCH   2  40
ATOM     40  C12 <0> d          -3.555   1.328  -2.578  0.00  0.00     0.092 C 
ATOM     41  H20 <0> d          -2.893   1.260  -3.442  0.00  0.00     0.088 H 
ATOM     42  H21 <0> d          -4.372   0.616  -2.690  0.00  0.00     0.088 H 
BRANCH  40  43
ATOM     43  O2  <0> d          -4.085   2.652  -2.487  0.00  0.00    -0.387 OA
BRANCH  43  44
ATOM     44  C13 <0> d          -4.841   3.054  -3.631  0.00  0.00     0.005 C 
ATOM     45  H22 <0> d          -4.206   3.022  -4.516  0.00  0.00     0.066 H 
ATOM     46  H23 <0> d          -5.686   2.378  -3.765  0.00  0.00     0.066 H 
ATOM     47  H24 <0> d          -5.209   4.070  -3.484  0.00  0.00     0.066 H 
ENDBRANCH  43  44
ENDBRANCH  40  43
ENDBRANCH   2  40
TORSDOF 10
