REMARK  9 active torsions:
REMARK  status: ('A' for Active; 'I' for Inactive)
REMARK    1  A    between atoms: C1_1  and  C2_2 
REMARK    2  A    between atoms: C2_2  and  C3_4 
REMARK    3  A    between atoms: C2_2  and  C15_19 
REMARK    4  A    between atoms: C3_4  and  N1_5 
REMARK    5  A    between atoms: N1_5  and  C4_6 
REMARK       I    between atoms: N1_5  and  C7_9 
REMARK    6  A    between atoms: C7_9  and  C8_11 
REMARK    7  A    between atoms: C8_11  and  C9_12 
REMARK    8  A    between atoms: C15_19  and  O3_21 
REMARK    9  A    between atoms: O3_21  and  C16_22 
ROOT
ATOM      1  N1  <0> d           2.157  -0.104   1.167  0.00  0.00    -0.346 N 
ATOM      2  C7  <0> d           3.073  -0.940   0.638  0.00  0.00     0.224 C 
ATOM      3  O1  <0> d           4.254  -0.674   0.719  0.00  0.00    -0.273 OA
ENDROOT
BRANCH   1   4
ATOM      4  C3  <0> d           0.740  -0.475   1.164  0.00  0.00     0.010 C 
ATOM      5  H5  <0> d           0.245  -0.027   2.026  0.00  0.00     0.065 H 
ATOM      6  H6  <0> d           0.648  -1.560   1.217  0.00  0.00     0.065 H 
BRANCH   4   7
ATOM      7  C2  <0> d           0.083   0.030  -0.122  0.00  0.00     0.042 C 
ATOM      8  H1  <0> d           0.632  -0.348  -0.984  0.00  0.00     0.057 H 
BRANCH   7   9
ATOM      9  C1  <0> d           0.101   1.560  -0.136  0.00  0.00    -0.063 C 
ATOM     10  H2  <0> d           1.131   1.912  -0.092  0.00  0.00     0.028 H 
ATOM     11  H3  <0> d          -0.367   1.920  -1.052  0.00  0.00     0.028 H 
ATOM     12  H4  <0> d          -0.449   1.938   0.726  0.00  0.00     0.028 H 
ENDBRANCH   7   9
BRANCH   7  13
ATOM     13  C15 <0> d          -1.343  -0.456  -0.182  0.00  0.00     0.263 C 
ATOM     14  O2  <0> d          -1.787  -1.137   0.711  0.00  0.00    -0.265 OA
BRANCH  13  15
ATOM     15  O3  <0> d          -2.118  -0.133  -1.229  0.00  0.00    -0.326 OA
BRANCH  15  16
ATOM     16  C16 <0> d          -3.458  -0.628  -1.221  0.00  0.00     0.013 C 
ATOM     17  H18 <0> d          -3.443  -1.717  -1.194  0.00  0.00     0.067 H 
ATOM     18  H19 <0> d          -3.980  -0.249  -0.342  0.00  0.00     0.067 H 
ATOM     19  H20 <0> d          -3.974  -0.294  -2.122  0.00  0.00     0.067 H 
ENDBRANCH  15  16
ENDBRANCH  13  15
ENDBRANCH   7  13
ENDBRANCH   4   7
ENDBRANCH   1   4
BRANCH   1  20
ATOM     20  C4  <0> d           2.578   1.174   1.745  0.00  0.00     0.015 A 
ATOM     21  C6  <0> d           2.342   1.385   3.242  0.00  0.00    -0.044 A 
ATOM     22  C5  <0> d           3.760   1.155   2.716  0.00  0.00    -0.044 A 
ATOM     23  H10 <0> d           2.085   2.391   3.574  0.00  0.00     0.036 H 
ATOM     24  H11 <0> d           1.873   0.572   3.797  0.00  0.00     0.036 H 
ATOM     25  H8  <0> d           4.224   0.191   2.925  0.00  0.00     0.036 H 
ATOM     26  H9  <0> d           4.437   2.010   2.703  0.00  0.00     0.036 H 
ATOM     27  H7  <0> d           2.476   2.041   1.092  0.00  0.00     0.072 H 
ENDBRANCH   1  20
BRANCH   2  28
ATOM     28  C8  <0> d           2.630  -2.203  -0.055  0.00  0.00     0.033 C 
ATOM     29  H12 <0> d           2.006  -2.787   0.620  0.00  0.00     0.054 H 
ATOM     30  H13 <0> d           2.060  -1.946  -0.947  0.00  0.00     0.054 H 
BRANCH  28  31
ATOM     31  C9  <0> d           3.840  -3.011  -0.447  0.00  0.00    -0.049 A 
ATOM     32  C14 <0> d           4.358  -3.947   0.429  0.00  0.00    -0.073 A 
ATOM     33  C13 <0> d           5.465  -4.693   0.068  0.00  0.00    -0.045 A 
ATOM     34  H17 <0> d           3.896  -4.099   1.393  0.00  0.00     0.084 H 
ATOM     35  C12 <0> d           6.061  -4.494  -1.165  0.00  0.00     0.116 A 
ATOM     36  H16 <0> d           5.867  -5.427   0.750  0.00  0.00     0.088 H 
ATOM     37  C11 <0> d           5.544  -3.552  -2.039  0.00  0.00    -0.045 A 
ATOM     38  F1  <0> d           7.146  -5.219  -1.517  0.00  0.00    -0.206 F 
ATOM     39  C10 <0> d           4.435  -2.812  -1.679  0.00  0.00    -0.073 A 
ATOM     40  H15 <0> d           6.008  -3.397  -3.002  0.00  0.00     0.088 H 
ATOM     41  H14 <0> d           4.031  -2.077  -2.360  0.00  0.00     0.084 H 
ENDBRANCH  28  31
ENDBRANCH   2  28
TORSDOF 9
