REMARK  5 active torsions:
REMARK  status: ('A' for Active; 'I' for Inactive)
REMARK    1  A    between atoms: C1_1  and  C2_2 
REMARK    2  A    between atoms: C2_2  and  N1_3 
REMARK    3  A    between atoms: C3_4  and  C14_23 
REMARK    4  A    between atoms: C6_7  and  C8_10 
REMARK       I    between atoms: C8_10  and  N2_12 
REMARK    5  A    between atoms: C11_16  and  C13_19 
ROOT
ATOM      1  N1  <0> d           0.609  -0.841   1.113  0.00  0.00    -0.318 N 
ATOM      2  C3  <0> d           1.932  -1.113   1.024  0.00  0.00     0.011 A 
ATOM      3  C4  <0> d           2.660  -1.437   2.123  0.00  0.00    -0.060 A 
ATOM      4  C5  <0> d           2.049  -1.495   3.375  0.00  0.00    -0.060 A 
ATOM      5  C6  <0> d           0.687  -1.216   3.475  0.00  0.00     0.100 A 
ATOM      6  C7  <0> d          -0.030  -0.878   2.298  0.00  0.00     0.263 A 
ATOM      7  O1  <0> d          -1.220  -0.625   2.359  0.00  0.00    -0.267 OA
ATOM      8  H7  <0> d           3.715  -1.651   2.027  0.00  0.00     0.086 H 
ATOM      9  H8  <0> d           2.622  -1.753   4.254  0.00  0.00     0.085 H 
ENDROOT
BRANCH   5  10
ATOM     10  C8  <0> d           0.006  -1.268   4.777  0.00  0.00     0.259 C 
ATOM     11  O2  <0> d          -0.650  -2.246   5.083  0.00  0.00    -0.267 OA
ATOM     12  N2  <0> d           0.109  -0.232   5.633  0.00  0.00    -0.343 N 
ATOM     13  C12 <0> d          -0.649  -0.212   6.894  0.00  0.00     0.030 C 
ATOM     14  C9  <0> d           0.978   0.917   5.330  0.00  0.00     0.018 C 
ATOM     15  C11 <0> d           0.330   0.102   8.037  0.00  0.00     0.147 C 
ATOM     16  H13 <0> d          -1.421   0.555   6.847  0.00  0.00     0.068 H 
ATOM     17  H14 <0> d          -1.108  -1.187   7.061  0.00  0.00     0.068 H 
ATOM     18  O3  <0> d           1.059   1.290   7.716  0.00  0.00    -0.374 OA
ATOM     19  H1  <0> d           1.025  -0.728   8.163  0.00  0.00     0.099 H 
ATOM     20  C10 <0> d           1.873   1.179   6.546  0.00  0.00     0.035 C 
ATOM     21  H11 <0> d           2.574   0.353   6.668  0.00  0.00     0.076 H 
ATOM     22  H12 <0> d           2.426   2.107   6.398  0.00  0.00     0.076 H 
ATOM     23  H9  <0> d           1.595   0.691   4.461  0.00  0.00     0.067 H 
ATOM     24  H10 <0> d           0.366   1.797   5.128  0.00  0.00     0.067 H 
BRANCH  15  25
ATOM     25  C13 <0> d          -0.451   0.317   9.334  0.00  0.00     0.414 C 
ATOM     26  F1  <0> d          -1.345   1.381   9.170  0.00  0.00    -0.168 F 
ATOM     27  F2  <0> d          -1.164  -0.846   9.647  0.00  0.00    -0.168 F 
ATOM     28  F3  <0> d           0.439   0.612  10.372  0.00  0.00    -0.168 F 
ENDBRANCH  15  25
ENDBRANCH   5  10
BRANCH   1  29
ATOM     29  C2  <0> d          -0.139  -0.495  -0.098  0.00  0.00    -0.001 C 
ATOM     30  H5  <0> d           0.512   0.043  -0.786  0.00  0.00     0.064 H 
ATOM     31  H6  <0> d          -0.988   0.136   0.167  0.00  0.00     0.064 H 
BRANCH  29  32
ATOM     32  C1  <0> d          -0.645  -1.774  -0.768  0.00  0.00    -0.061 C 
ATOM     33  H2  <0> d          -1.296  -2.312  -0.080  0.00  0.00     0.029 H 
ATOM     34  H3  <0> d          -1.201  -1.516  -1.670  0.00  0.00     0.029 H 
ATOM     35  H4  <0> d           0.204  -2.405  -1.033  0.00  0.00     0.029 H 
ENDBRANCH  29  32
ENDBRANCH   1  29
BRANCH   2  36
ATOM     36  C14 <0> d           2.610  -1.056  -0.321  0.00  0.00    -0.037 C 
ATOM     37  H15 <0> d           3.045  -0.067  -0.467  0.00  0.00     0.035 H 
ATOM     38  H16 <0> d           3.397  -1.808  -0.364  0.00  0.00     0.035 H 
ATOM     39  H17 <0> d           1.878  -1.250  -1.105  0.00  0.00     0.035 H 
ENDBRANCH   2  36
TORSDOF 5
