REMARK  11 active torsions:
REMARK  status: ('A' for Active; 'I' for Inactive)
REMARK    1  A    between atoms: C1_1  and  C2_2 
REMARK    2  A    between atoms: C2_2  and  O1_3 
REMARK    3  A    between atoms: O1_3  and  C3_4 
REMARK    4  A    between atoms: C3_4  and  C4_6 
REMARK    5  A    between atoms: C4_6  and  C5_7 
REMARK    6  A    between atoms: C5_7  and  N1_8 
REMARK    7  A    between atoms: N1_8  and  C6_9 
REMARK       I    between atoms: N1_8  and  C9_12 
REMARK    8  A    between atoms: C9_12  and  C10_14 
REMARK    9  A    between atoms: C10_14  and  C11_15 
REMARK   10  A    between atoms: C10_14  and  C12_16 
REMARK   11  A    between atoms: C10_14  and  C13_17 
ROOT
ATOM      1  N1  <0> d           2.188  -4.456   3.588  0.00  0.00    -0.346 N 
ATOM      2  C9  <0> d           3.512  -4.707   3.536  0.00  0.00     0.227 C 
ATOM      3  O3  <0> d           4.151  -4.388   2.556  0.00  0.00    -0.273 OA
ENDROOT
BRANCH   1   4
ATOM      4  C5  <0> d           1.500  -3.910   2.416  0.00  0.00     0.006 C 
ATOM      5  H8  <0> d           0.465  -4.252   2.411  0.00  0.00     0.065 H 
ATOM      6  H9  <0> d           1.999  -4.250   1.509  0.00  0.00     0.065 H 
BRANCH   4   7
ATOM      7  C4  <0> d           1.531  -2.381   2.473  0.00  0.00     0.031 C 
ATOM      8  H6  <0> d           2.566  -2.039   2.479  0.00  0.00     0.050 H 
ATOM      9  H7  <0> d           1.032  -2.041   3.380  0.00  0.00     0.050 H 
BRANCH   7  10
ATOM     10  C3  <0> d           0.823  -1.819   1.268  0.00  0.00     0.260 C 
ATOM     11  O2  <0> d           0.342  -2.564   0.448  0.00  0.00    -0.265 OA
BRANCH  10  12
ATOM     12  O1  <0> d           0.726  -0.490   1.106  0.00  0.00    -0.322 OA
BRANCH  12  13
ATOM     13  C2  <0> d           0.041  -0.026  -0.060  0.00  0.00     0.025 C 
ATOM     14  H4  <0> d          -0.985  -0.396  -0.049  0.00  0.00     0.074 H 
ATOM     15  H5  <0> d           0.550  -0.394  -0.951  0.00  0.00     0.074 H 
BRANCH  13  16
ATOM     16  C1  <0> d           0.032   1.503  -0.072  0.00  0.00    -0.056 C 
ATOM     17  H1  <0> d           1.058   1.873  -0.082  0.00  0.00     0.030 H 
ATOM     18  H2  <0> d          -0.490   1.857  -0.961  0.00  0.00     0.030 H 
ATOM     19  H3  <0> d          -0.477   1.871   0.819  0.00  0.00     0.030 H 
ENDBRANCH  13  16
ENDBRANCH  12  13
ENDBRANCH  10  12
ENDBRANCH   7  10
ENDBRANCH   4   7
ENDBRANCH   1   4
BRANCH   1  20
ATOM     20  C6  <0> d           1.439  -4.731   4.816  0.00  0.00     0.015 A 
ATOM     21  C8  <0> d           0.829  -3.537   5.553  0.00  0.00    -0.044 A 
ATOM     22  C7  <0> d          -0.074  -4.505   4.786  0.00  0.00    -0.044 A 
ATOM     23  H13 <0> d           0.800  -3.578   6.642  0.00  0.00     0.036 H 
ATOM     24  H14 <0> d           0.985  -2.547   5.124  0.00  0.00     0.036 H 
ATOM     25  H11 <0> d          -0.512  -4.153   3.852  0.00  0.00     0.036 H 
ATOM     26  H12 <0> d          -0.696  -5.184   5.370  0.00  0.00     0.036 H 
ATOM     27  H10 <0> d           1.813  -5.558   5.420  0.00  0.00     0.072 H 
ENDBRANCH   1  20
BRANCH   2  28
ATOM     28  C10 <0> d           4.197  -5.383   4.695  0.00  0.00     0.030 C 
BRANCH  28  29
ATOM     29  C11 <0> d           5.705  -5.428   4.441  0.00  0.00    -0.061 C 
ATOM     30  H15 <0> d           6.086  -4.412   4.337  0.00  0.00     0.029 H 
ATOM     31  H16 <0> d           6.200  -5.917   5.279  0.00  0.00     0.029 H 
ATOM     32  H17 <0> d           5.903  -5.986   3.526  0.00  0.00     0.029 H 
ENDBRANCH  28  29
BRANCH  28  33
ATOM     33  C12 <0> d           3.919  -4.600   5.979  0.00  0.00    -0.061 C 
ATOM     34  H18 <0> d           2.844  -4.569   6.160  0.00  0.00     0.029 H 
ATOM     35  H19 <0> d           4.414  -5.090   6.818  0.00  0.00     0.029 H 
ATOM     36  H20 <0> d           4.299  -3.584   5.875  0.00  0.00     0.029 H 
ENDBRANCH  28  33
BRANCH  28  37
ATOM     37  C13 <0> d           3.662  -6.810   4.841  0.00  0.00    -0.061 C 
ATOM     38  H21 <0> d           3.781  -7.341   3.897  0.00  0.00     0.029 H 
ATOM     39  H22 <0> d           4.219  -7.328   5.622  0.00  0.00     0.029 H 
ATOM     40  H23 <0> d           2.606  -6.776   5.109  0.00  0.00     0.029 H 
ENDBRANCH  28  37
ENDBRANCH   2  28
TORSDOF 11
