REMARK  13 active torsions:
REMARK  status: ('A' for Active; 'I' for Inactive)
REMARK    1  A    between atoms: C1_1  and  C2_2 
REMARK    2  A    between atoms: C2_2  and  C3_4 
REMARK    3  A    between atoms: C2_2  and  C12_15 
REMARK    4  A    between atoms: C3_4  and  N1_5 
REMARK    5  A    between atoms: N1_5  and  C4_6 
REMARK       I    between atoms: N1_5  and  C7_9 
REMARK    6  A    between atoms: C4_6  and  C5_7 
REMARK    7  A    between atoms: C4_6  and  C6_8 
REMARK    8  A    between atoms: C7_9  and  C8_11 
REMARK    9  A    between atoms: C8_11  and  C9_12 
REMARK   10  A    between atoms: C8_11  and  C10_13 
REMARK   11  A    between atoms: C8_11  and  C11_14 
REMARK   12  A    between atoms: C12_15  and  O3_17 
REMARK   13  A    between atoms: O3_17  and  C13_18 
ROOT
ATOM      1  N1  <0> d           2.502   0.270   0.658  0.00  0.00    -0.347 N 
ATOM      2  C7  <0> d           3.203  -0.798   0.229  0.00  0.00     0.227 C 
ATOM      3  O1  <0> d           4.415  -0.788   0.280  0.00  0.00    -0.273 OA
ENDROOT
BRANCH   1   4
ATOM      4  C3  <0> d           1.039   0.264   0.582  0.00  0.00     0.010 C 
ATOM      5  H5  <0> d           0.623   0.419   1.578  0.00  0.00     0.065 H 
ATOM      6  H6  <0> d           0.699  -0.695   0.192  0.00  0.00     0.065 H 
BRANCH   4   7
ATOM      7  C2  <0> d           0.572   1.387  -0.346  0.00  0.00     0.042 C 
ATOM      8  H1  <0> d           1.091   1.308  -1.301  0.00  0.00     0.057 H 
BRANCH   7   9
ATOM      9  C1  <0> d           0.886   2.741   0.294  0.00  0.00    -0.063 C 
ATOM     10  H2  <0> d           1.956   2.934   0.231  0.00  0.00     0.028 H 
ATOM     11  H3  <0> d           0.343   3.526  -0.233  0.00  0.00     0.028 H 
ATOM     12  H4  <0> d           0.580   2.728   1.340  0.00  0.00     0.028 H 
ENDBRANCH   7   9
BRANCH   7  13
ATOM     13  C12 <0> d          -0.913   1.269  -0.570  0.00  0.00     0.263 C 
ATOM     14  O2  <0> d          -1.535   0.378  -0.041  0.00  0.00    -0.265 OA
BRANCH  13  15
ATOM     15  O3  <0> d          -1.546   2.154  -1.356  0.00  0.00    -0.326 OA
BRANCH  15  16
ATOM     16  C13 <0> d          -2.955   1.982  -1.524  0.00  0.00     0.013 C 
ATOM     17  H23 <0> d          -3.151   1.004  -1.965  0.00  0.00     0.067 H 
ATOM     18  H24 <0> d          -3.447   2.048  -0.554  0.00  0.00     0.067 H 
ATOM     19  H25 <0> d          -3.340   2.761  -2.181  0.00  0.00     0.067 H 
ENDBRANCH  15  16
ENDBRANCH  13  15
ENDBRANCH   7  13
ENDBRANCH   4   7
ENDBRANCH   1   4
BRANCH   1  20
ATOM     20  C4  <0> d           3.203   1.436   1.201  0.00  0.00     0.007 C 
ATOM     21  H7  <0> d           2.474   2.170   1.546  0.00  0.00     0.071 H 
BRANCH  20  22
ATOM     22  C5  <0> d           4.085   1.002   2.373  0.00  0.00    -0.057 C 
ATOM     23  H8  <0> d           4.882   0.355   2.008  0.00  0.00     0.030 H 
ATOM     24  H9  <0> d           4.519   1.882   2.847  0.00  0.00     0.030 H 
ATOM     25  H10 <0> d           3.481   0.459   3.100  0.00  0.00     0.030 H 
ENDBRANCH  20  22
BRANCH  20  26
ATOM     26  C6  <0> d           4.076   2.060   0.110  0.00  0.00    -0.057 C 
ATOM     27  H11 <0> d           3.442   2.426  -0.698  0.00  0.00     0.030 H 
ATOM     28  H12 <0> d           4.645   2.889   0.529  0.00  0.00     0.030 H 
ATOM     29  H13 <0> d           4.763   1.308  -0.279  0.00  0.00     0.030 H 
ENDBRANCH  20  26
ENDBRANCH   1  20
BRANCH   2  30
ATOM     30  C8  <0> d           2.482  -2.005  -0.314  0.00  0.00     0.030 C 
BRANCH  30  31
ATOM     31  C9  <0> d           3.503  -3.069  -0.720  0.00  0.00    -0.061 C 
ATOM     32  H14 <0> d           4.091  -3.359   0.150  0.00  0.00     0.029 H 
ATOM     33  H15 <0> d           2.981  -3.942  -1.113  0.00  0.00     0.029 H 
ATOM     34  H16 <0> d           4.163  -2.665  -1.488  0.00  0.00     0.029 H 
ENDBRANCH  30  31
BRANCH  30  35
ATOM     35  C10 <0> d           1.555  -2.572   0.763  0.00  0.00    -0.061 C 
ATOM     36  H17 <0> d           0.791  -1.834   1.010  0.00  0.00     0.029 H 
ATOM     37  H18 <0> d           1.077  -3.478   0.391  0.00  0.00     0.029 H 
ATOM     38  H19 <0> d           2.135  -2.807   1.655  0.00  0.00     0.029 H 
ENDBRANCH  30  35
BRANCH  30  39
ATOM     39  C11 <0> d           1.655  -1.598  -1.536  0.00  0.00    -0.061 C 
ATOM     40  H20 <0> d           2.289  -1.056  -2.238  0.00  0.00     0.029 H 
ATOM     41  H21 <0> d           1.258  -2.490  -2.019  0.00  0.00     0.029 H 
ATOM     42  H22 <0> d           0.832  -0.957  -1.220  0.00  0.00     0.029 H 
ENDBRANCH  30  39
ENDBRANCH   2  30
TORSDOF 13
