REMARK  8 active torsions:
REMARK  status: ('A' for Active; 'I' for Inactive)
REMARK    1  A    between atoms: C1_1  and  C2_2 
REMARK    2  A    between atoms: C2_2  and  C3_3 
REMARK    3  A    between atoms: C3_3  and  C4_5 
REMARK    4  A    between atoms: C3_3  and  N1_7 
REMARK    5  A    between atoms: C4_5  and  O1_6 
REMARK    6  A    between atoms: C10_14  and  O3_18 
REMARK    7  A    between atoms: O3_18  and  C13_19 
REMARK    8  A    between atoms: C13_19  and  C14_20 
ROOT
ATOM      1  N1  <0> d           2.148  -0.104   1.172  0.00  0.00    -0.320 N 
ATOM      2  C5  <0> d           2.844   0.738   2.152  0.00  0.00     0.126 A 
ATOM      3  H2  <0> d           2.835   0.258   3.131  0.00  0.00     0.104 H 
ATOM      4  C6  <0> d           4.261   0.878   1.655  0.00  0.00    -0.003 A 
ATOM      5  C7  <0> d           5.367   1.536   2.137  0.00  0.00    -0.073 A 
ATOM      6  C8  <0> d           6.566   1.483   1.443  0.00  0.00    -0.080 A 
ATOM      7  C9  <0> d           6.657   0.769   0.264  0.00  0.00    -0.050 A 
ATOM      8  C10 <0> d           5.550   0.099  -0.234  0.00  0.00     0.085 A 
ATOM      9  C11 <0> d           4.335   0.150   0.464  0.00  0.00     0.074 A 
ATOM     10  C12 <0> d           3.014  -0.444   0.202  0.00  0.00     0.259 A 
ATOM     11  O2  <0> d           2.744  -1.142  -0.757  0.00  0.00    -0.267 OA
ATOM     12  C20 <0> d           2.200   2.059   2.231  0.00  0.00     0.089 C 
ATOM     13  N2  <0> d           1.704   3.079   2.293  0.00  0.00    -0.195 NA
ATOM     14  H11 <0> d           5.302   2.097   3.058  0.00  0.00     0.084 H 
ATOM     15  H12 <0> d           7.432   2.002   1.825  0.00  0.00     0.083 H 
ATOM     16  H13 <0> d           7.594   0.732  -0.271  0.00  0.00     0.087 H 
ENDROOT
BRANCH   1  17
ATOM     17  C3  <0> d           0.742  -0.511   1.242  0.00  0.00     0.036 C 
ATOM     18  H1  <0> d           0.285  -0.087   2.136  0.00  0.00     0.076 H 
BRANCH  17  19
ATOM     19  C2  <0> d           0.002  -0.004   0.002  0.00  0.00    -0.047 C 
ATOM     20  H6  <0> d          -1.020  -0.381   0.010  0.00  0.00     0.035 H 
ATOM     21  H7  <0> d           0.512  -0.356  -0.895  0.00  0.00     0.035 H 
BRANCH  19  22
ATOM     22  C1  <0> d          -0.019   1.526   0.010  0.00  0.00    -0.075 C 
ATOM     23  H3  <0> d           1.004   1.903   0.003  0.00  0.00     0.027 H 
ATOM     24  H4  <0> d          -0.546   1.887  -0.873  0.00  0.00     0.027 H 
ATOM     25  H5  <0> d          -0.529   1.877   0.907  0.00  0.00     0.027 H 
ENDBRANCH  19  22
ENDBRANCH  17  19
BRANCH  17  26
ATOM     26  C4  <0> d           0.655  -2.037   1.299  0.00  0.00     0.036 C 
ATOM     27  H8  <0> d           1.256  -2.405   2.131  0.00  0.00     0.077 H 
ATOM     28  H9  <0> d          -0.383  -2.337   1.440  0.00  0.00     0.077 H 
BRANCH  26  29
ATOM     29  O1  <0> d           1.148  -2.588   0.076  0.00  0.00    -0.399 OA
ATOM     30  H10 <0> d           1.123  -3.555   0.041  0.00  0.00     0.209 HD
ENDBRANCH  26  29
ENDBRANCH  17  26
ENDBRANCH   1  17
BRANCH   8  31
ATOM     31  O3  <0> d           5.641  -0.602  -1.392  0.00  0.00    -0.346 OA
BRANCH  31  32
ATOM     32  C13 <0> d           6.911  -0.608  -2.048  0.00  0.00     0.050 C 
ATOM     33  H14 <0> d           7.194   0.414  -2.301  0.00  0.00     0.082 H 
ATOM     34  H15 <0> d           7.660  -1.039  -1.385  0.00  0.00     0.082 H 
BRANCH  32  35
ATOM     35  C14 <0> d           6.822  -1.431  -3.308  0.00  0.00    -0.034 A 
ATOM     36  C19 <0> d           6.467  -0.831  -4.501  0.00  0.00    -0.075 A 
ATOM     37  C18 <0> d           6.389  -1.585  -5.657  0.00  0.00    -0.082 A 
ATOM     38  H20 <0> d           6.254   0.227  -4.532  0.00  0.00     0.084 H 
ATOM     39  C17 <0> d           6.657  -2.940  -5.618  0.00  0.00    -0.083 A 
ATOM     40  H19 <0> d           6.116  -1.115  -6.591  0.00  0.00     0.083 H 
ATOM     41  C16 <0> d           7.007  -3.541  -4.423  0.00  0.00    -0.082 A 
ATOM     42  H18 <0> d           6.594  -3.530  -6.521  0.00  0.00     0.083 H 
ATOM     43  C15 <0> d           7.089  -2.787  -3.268  0.00  0.00    -0.075 A 
ATOM     44  H17 <0> d           7.216  -4.600  -4.392  0.00  0.00     0.083 H 
ATOM     45  H16 <0> d           7.362  -3.256  -2.334  0.00  0.00     0.084 H 
ENDBRANCH  32  35
ENDBRANCH  31  32
ENDBRANCH   8  31
TORSDOF 8
