REMARK  6 active torsions:
REMARK  status: ('A' for Active; 'I' for Inactive)
REMARK    1  A    between atoms: C1_1  and  C2_2 
REMARK    2  A    between atoms: C2_2  and  C3_3 
REMARK    3  A    between atoms: C2_2  and  N1_4 
REMARK    4  A    between atoms: C9_11  and  O2_15 
REMARK    5  A    between atoms: O2_15  and  C12_16 
REMARK    6  A    between atoms: C12_16  and  C13_17 
ROOT
ATOM      1  N1  <0> d           0.711  -0.489   1.189  0.00  0.00    -0.323 N 
ATOM      2  C4  <0> d           0.143  -1.355   2.229  0.00  0.00     0.125 A 
ATOM      3  H1  <0> d          -0.704  -0.862   2.706  0.00  0.00     0.104 H 
ATOM      4  C5  <0> d           1.244  -1.582   3.235  0.00  0.00    -0.003 A 
ATOM      5  C6  <0> d           1.315  -2.295   4.408  0.00  0.00    -0.073 A 
ATOM      6  C7  <0> d           2.494  -2.318   5.137  0.00  0.00    -0.080 A 
ATOM      7  C8  <0> d           3.603  -1.626   4.690  0.00  0.00    -0.050 A 
ATOM      8  C9  <0> d           3.546  -0.903   3.508  0.00  0.00     0.085 A 
ATOM      9  C10 <0> d           2.356  -0.876   2.768  0.00  0.00     0.074 A 
ATOM     10  C11 <0> d           1.990  -0.220   1.502  0.00  0.00     0.259 A 
ATOM     11  O1  <0> d           2.737   0.470   0.835  0.00  0.00    -0.267 OA
ATOM     12  C19 <0> d          -0.282  -2.637   1.644  0.00  0.00     0.089 C 
ATOM     13  N2  <0> d          -0.610  -3.627   1.192  0.00  0.00    -0.195 NA
ATOM     14  H9  <0> d           0.452  -2.838   4.762  0.00  0.00     0.084 H 
ATOM     15  H10 <0> d           2.546  -2.879   6.058  0.00  0.00     0.083 H 
ATOM     16  H11 <0> d           4.518  -1.649   5.263  0.00  0.00     0.087 H 
ENDROOT
BRANCH   1  17
ATOM     17  C2  <0> d           0.002  -0.004   0.002  0.00  0.00     0.009 C 
ATOM     18  H5  <0> d          -1.020  -0.381   0.010  0.00  0.00     0.071 H 
BRANCH  17  19
ATOM     19  C1  <0> d          -0.019   1.526   0.010  0.00  0.00    -0.057 C 
ATOM     20  H2  <0> d           1.004   1.903   0.003  0.00  0.00     0.030 H 
ATOM     21  H3  <0> d          -0.546   1.887  -0.873  0.00  0.00     0.030 H 
ATOM     22  H4  <0> d          -0.529   1.877   0.907  0.00  0.00     0.030 H 
ENDBRANCH  17  19
BRANCH  17  23
ATOM     23  C3  <0> d           0.718  -0.497  -1.257  0.00  0.00    -0.057 C 
ATOM     24  H6  <0> d           1.741  -0.120  -1.264  0.00  0.00     0.030 H 
ATOM     25  H7  <0> d           0.733  -1.587  -1.263  0.00  0.00     0.030 H 
ATOM     26  H8  <0> d           0.191  -0.136  -2.140  0.00  0.00     0.030 H 
ENDBRANCH  17  23
ENDBRANCH   1  17
BRANCH   8  27
ATOM     27  O2  <0> d           4.636  -0.224   3.071  0.00  0.00    -0.346 OA
BRANCH  27  28
ATOM     28  C12 <0> d           5.813  -0.297   3.879  0.00  0.00     0.050 C 
ATOM     29  H12 <0> d           5.598   0.101   4.871  0.00  0.00     0.082 H 
ATOM     30  H13 <0> d           6.130  -1.336   3.965  0.00  0.00     0.082 H 
BRANCH  28  31
ATOM     31  C13 <0> d           6.912   0.512   3.240  0.00  0.00    -0.034 A 
ATOM     32  C18 <0> d           7.058   1.850   3.556  0.00  0.00    -0.075 A 
ATOM     33  C17 <0> d           8.069   2.591   2.973  0.00  0.00    -0.082 A 
ATOM     34  H18 <0> d           6.385   2.315   4.261  0.00  0.00     0.084 H 
ATOM     35  C16 <0> d           8.928   1.997   2.068  0.00  0.00    -0.083 A 
ATOM     36  H17 <0> d           8.186   3.635   3.223  0.00  0.00     0.083 H 
ATOM     37  C15 <0> d           8.779   0.661   1.748  0.00  0.00    -0.082 A 
ATOM     38  H16 <0> d           9.716   2.577   1.610  0.00  0.00     0.083 H 
ATOM     39  C14 <0> d           7.771  -0.082   2.334  0.00  0.00    -0.075 A 
ATOM     40  H15 <0> d           9.450   0.196   1.040  0.00  0.00     0.083 H 
ATOM     41  H14 <0> d           7.654  -1.126   2.084  0.00  0.00     0.084 H 
ENDBRANCH  28  31
ENDBRANCH  27  28
ENDBRANCH   8  27
TORSDOF 6
