REMARK  10 active torsions:
REMARK  status: ('A' for Active; 'I' for Inactive)
REMARK    1  A    between atoms: C1_1  and  C2_2 
REMARK    2  A    between atoms: C2_2  and  C3_4 
REMARK    3  A    between atoms: C2_2  and  O4_23 
REMARK    4  A    between atoms: C3_4  and  N1_5 
REMARK    5  A    between atoms: N1_5  and  C4_6 
REMARK       I    between atoms: N1_5  and  C8_12 
REMARK    6  A    between atoms: C4_6  and  C5_7 
REMARK    7  A    between atoms: C5_7  and  C6_8 
REMARK    8  A    between atoms: C6_8  and  O2_10 
REMARK    9  A    between atoms: O2_10  and  C7_11 
REMARK   10  A    between atoms: C8_12  and  C9_14 
ROOT
ATOM      1  N1  <0> d           0.472  -2.036   0.873  0.00  0.00    -0.345 N 
ATOM      2  C8  <0> d          -0.599  -2.528   1.528  0.00  0.00     0.257 C 
ATOM      3  O3  <0> d          -1.294  -1.788   2.197  0.00  0.00    -0.267 OA
ENDROOT
BRANCH   1   4
ATOM      4  C3  <0> d           0.830  -0.622   1.012  0.00  0.00     0.021 C 
ATOM      5  H5  <0> d           1.909  -0.509   0.905  0.00  0.00     0.068 H 
ATOM      6  H6  <0> d           0.522  -0.265   1.994  0.00  0.00     0.068 H 
BRANCH   4   7
ATOM      7  C2  <0> d           0.121   0.193  -0.072  0.00  0.00     0.047 C 
ATOM      8  H1  <0> d           0.391  -0.197  -1.054  0.00  0.00     0.084 H 
BRANCH   7   9
ATOM      9  C1  <0> d           0.549   1.658   0.030  0.00  0.00    -0.051 C 
ATOM     10  H2  <0> d           1.628   1.732  -0.106  0.00  0.00     0.030 H 
ATOM     11  H3  <0> d           0.044   2.238  -0.742  0.00  0.00     0.030 H 
ATOM     12  H4  <0> d           0.279   2.047   1.012  0.00  0.00     0.030 H 
ENDBRANCH   7   9
BRANCH   7  13
ATOM     13  O4  <0> d          -1.293   0.095   0.106  0.00  0.00    -0.394 OA
ATOM     14  H16 <0> d          -1.615   0.499   0.924  0.00  0.00     0.210 HD
ENDBRANCH   7  13
ENDBRANCH   4   7
ENDBRANCH   1   4
BRANCH   1  15
ATOM     15  C4  <0> d           1.277  -2.915   0.021  0.00  0.00     0.006 C 
ATOM     16  H7  <0> d           0.755  -3.862  -0.120  0.00  0.00     0.065 H 
ATOM     17  H8  <0> d           1.434  -2.439  -0.947  0.00  0.00     0.065 H 
BRANCH  15  18
ATOM     18  C5  <0> d           2.629  -3.173   0.688  0.00  0.00     0.031 C 
ATOM     19  H9  <0> d           3.151  -2.226   0.829  0.00  0.00     0.050 H 
ATOM     20  H10 <0> d           2.472  -3.649   1.656  0.00  0.00     0.050 H 
BRANCH  18  21
ATOM     21  C6  <0> d           3.457  -4.077  -0.188  0.00  0.00     0.259 C 
ATOM     22  O1  <0> d           3.011  -4.475  -1.238  0.00  0.00    -0.265 OA
BRANCH  21  23
ATOM     23  O2  <0> d           4.690  -4.441   0.199  0.00  0.00    -0.326 OA
BRANCH  23  24
ATOM     24  C7  <0> d           5.419  -5.300  -0.680  0.00  0.00     0.013 C 
ATOM     25  H11 <0> d           4.868  -6.231  -0.818  0.00  0.00     0.067 H 
ATOM     26  H12 <0> d           5.547  -4.808  -1.645  0.00  0.00     0.067 H 
ATOM     27  H13 <0> d           6.396  -5.516  -0.250  0.00  0.00     0.067 H 
ENDBRANCH  23  24
ENDBRANCH  21  23
ENDBRANCH  18  21
ENDBRANCH  15  18
ENDBRANCH   1  15
BRANCH   2  28
ATOM     28  C9  <0> d          -0.926  -3.963   1.433  0.00  0.00     0.074 A 
ATOM     29  C14 <0> d          -2.244  -4.396   1.614  0.00  0.00     0.173 A 
ATOM     30  C13 <0> d          -2.545  -5.744   1.518  0.00  0.00     0.194 A 
ATOM     31  F1  <0> d          -3.221  -3.501   1.876  0.00  0.00    -0.202 F 
ATOM     32  C12 <0> d          -1.540  -6.662   1.254  0.00  0.00     0.158 A 
ATOM     33  F2  <0> d          -3.817  -6.165   1.687  0.00  0.00    -0.200 F 
ATOM     34  C11 <0> d          -0.231  -6.236   1.079  0.00  0.00    -0.041 A 
ATOM     35  F3  <0> d          -1.836  -7.977   1.167  0.00  0.00    -0.203 F 
ATOM     36  C10 <0> d           0.079  -4.896   1.167  0.00  0.00    -0.062 A 
ATOM     37  H15 <0> d           0.547  -6.956   0.874  0.00  0.00     0.088 H 
ATOM     38  H14 <0> d           1.099  -4.568   1.030  0.00  0.00     0.085 H 
ENDBRANCH   2  28
TORSDOF 10
