REMARK  7 active torsions:
REMARK  status: ('A' for Active; 'I' for Inactive)
REMARK    1  A    between atoms: C1_1  and  N1_2 
REMARK    2  A    between atoms: N1_2  and  C2_3 
REMARK       I    between atoms: N1_2  and  C6_9 
REMARK    3  A    between atoms: C2_3  and  C3_4 
REMARK    4  A    between atoms: C3_4  and  C4_5 
REMARK    5  A    between atoms: C4_5  and  O2_7 
REMARK    6  A    between atoms: O2_7  and  C5_8 
REMARK    7  A    between atoms: C6_9  and  C7_11 
ROOT
ATOM      1  N1  <0> d           0.430  -0.104  -0.063  0.00  0.00    -0.352 N 
ATOM      2  C6  <0> d          -0.102  -0.673  -1.163  0.00  0.00     0.256 C 
ATOM      3  O3  <0> d          -0.562  -1.797  -1.104  0.00  0.00    -0.267 OA
ENDROOT
BRANCH   1   4
ATOM      4  C1  <0> d           0.880   1.290  -0.104  0.00  0.00    -0.016 C 
ATOM      5  H1  <0> d           1.910   1.328  -0.459  0.00  0.00     0.056 H 
ATOM      6  H2  <0> d           0.242   1.858  -0.781  0.00  0.00     0.056 H 
ATOM      7  H3  <0> d           0.823   1.720   0.895  0.00  0.00     0.056 H 
ENDBRANCH   1   4
BRANCH   1   8
ATOM      8  C2  <0> d           0.557  -0.878   1.174  0.00  0.00     0.006 C 
ATOM      9  H4  <0> d           0.695  -1.932   0.930  0.00  0.00     0.065 H 
ATOM     10  H5  <0> d           1.416  -0.520   1.740  0.00  0.00     0.065 H 
BRANCH   8  11
ATOM     11  C3  <0> d          -0.712  -0.712   2.012  0.00  0.00     0.031 C 
ATOM     12  H6  <0> d          -0.851   0.342   2.256  0.00  0.00     0.050 H 
ATOM     13  H7  <0> d          -1.572  -1.070   1.446  0.00  0.00     0.050 H 
BRANCH  11  14
ATOM     14  C4  <0> d          -0.581  -1.508   3.285  0.00  0.00     0.259 C 
ATOM     15  O1  <0> d           0.423  -2.145   3.499  0.00  0.00    -0.265 OA
BRANCH  14  16
ATOM     16  O2  <0> d          -1.581  -1.512   4.180  0.00  0.00    -0.326 OA
BRANCH  16  17
ATOM     17  C5  <0> d          -1.389  -2.289   5.364  0.00  0.00     0.013 C 
ATOM     18  H8  <0> d          -2.270  -2.204   6.001  0.00  0.00     0.067 H 
ATOM     19  H9  <0> d          -1.236  -3.333   5.092  0.00  0.00     0.067 H 
ATOM     20  H10 <0> d          -0.515  -1.922   5.902  0.00  0.00     0.067 H 
ENDBRANCH  16  17
ENDBRANCH  14  16
ENDBRANCH  11  14
ENDBRANCH   8  11
ENDBRANCH   1   8
BRANCH   2  21
ATOM     21  C7  <0> d          -0.124   0.068  -2.440  0.00  0.00     0.074 A 
ATOM     22  C12 <0> d          -1.266   0.042  -3.247  0.00  0.00     0.173 A 
ATOM     23  C11 <0> d          -1.281   0.743  -4.439  0.00  0.00     0.194 A 
ATOM     24  F1  <0> d          -2.353  -0.661  -2.860  0.00  0.00    -0.202 F 
ATOM     25  C10 <0> d          -0.163   1.459  -4.838  0.00  0.00     0.158 A 
ATOM     26  F2  <0> d          -2.385   0.725  -5.219  0.00  0.00    -0.200 F 
ATOM     27  C9  <0> d           0.973   1.482  -4.042  0.00  0.00    -0.041 A 
ATOM     28  F3  <0> d          -0.180   2.138  -6.006  0.00  0.00    -0.203 F 
ATOM     29  C8  <0> d           0.998   0.792  -2.850  0.00  0.00    -0.062 A 
ATOM     30  H12 <0> d           1.840   2.042  -4.358  0.00  0.00     0.088 H 
ATOM     31  H11 <0> d           1.884   0.813  -2.232  0.00  0.00     0.085 H 
ENDBRANCH   2  21
TORSDOF 7
