REMARK  10 active torsions:
REMARK  status: ('A' for Active; 'I' for Inactive)
REMARK    1  A    between atoms: C1_1  and  C2_2 
REMARK    2  A    between atoms: C2_2  and  O1_3 
REMARK    3  A    between atoms: O1_3  and  C3_4 
REMARK    4  A    between atoms: C3_4  and  C4_6 
REMARK    5  A    between atoms: C4_6  and  C5_7 
REMARK    6  A    between atoms: C5_7  and  N1_8 
REMARK    7  A    between atoms: N1_8  and  C6_9 
REMARK       I    between atoms: N1_8  and  C9_12 
REMARK    8  A    between atoms: C6_9  and  C7_10 
REMARK    9  A    between atoms: C6_9  and  C8_11 
REMARK   10  A    between atoms: C9_12  and  C10_14 
ROOT
ATOM      1  N1  <0> d          -4.499  -5.686  -0.639  0.00  0.00    -0.343 N 
ATOM      2  C9  <0> d          -5.626  -5.258  -0.036  0.00  0.00     0.257 C 
ATOM      3  O3  <0> d          -5.782  -5.435   1.156  0.00  0.00    -0.267 OA
ENDROOT
BRANCH   1   4
ATOM      4  C5  <0> d          -3.936  -6.994  -0.296  0.00  0.00     0.007 C 
ATOM      5  H8  <0> d          -3.415  -7.404  -1.161  0.00  0.00     0.065 H 
ATOM      6  H9  <0> d          -4.739  -7.670  -0.002  0.00  0.00     0.065 H 
BRANCH   4   7
ATOM      7  C4  <0> d          -2.951  -6.837   0.865  0.00  0.00     0.031 C 
ATOM      8  H6  <0> d          -3.472  -6.428   1.730  0.00  0.00     0.050 H 
ATOM      9  H7  <0> d          -2.148  -6.162   0.571  0.00  0.00     0.050 H 
BRANCH   7  10
ATOM     10  C3  <0> d          -2.372  -8.183   1.217  0.00  0.00     0.260 C 
ATOM     11  O2  <0> d          -2.712  -9.167   0.604  0.00  0.00    -0.265 OA
BRANCH  10  12
ATOM     12  O1  <0> d          -1.479  -8.289   2.213  0.00  0.00    -0.322 OA
BRANCH  12  13
ATOM     13  C2  <0> d          -0.971  -9.595   2.494  0.00  0.00     0.025 C 
ATOM     14  H4  <0> d          -0.471  -9.989   1.608  0.00  0.00     0.074 H 
ATOM     15  H5  <0> d          -1.795 -10.254   2.768  0.00  0.00     0.074 H 
BRANCH  13  16
ATOM     16  C1  <0> d           0.026  -9.518   3.651  0.00  0.00    -0.056 C 
ATOM     17  H1  <0> d           0.413 -10.514   3.864  0.00  0.00     0.030 H 
ATOM     18  H2  <0> d           0.851  -8.859   3.376  0.00  0.00     0.030 H 
ATOM     19  H3  <0> d          -0.474  -9.125   4.536  0.00  0.00     0.030 H 
ENDBRANCH  13  16
ENDBRANCH  12  13
ENDBRANCH  10  12
ENDBRANCH   7  10
ENDBRANCH   4   7
ENDBRANCH   1   4
BRANCH   1  20
ATOM     20  C6  <0> d          -3.836  -4.842  -1.637  0.00  0.00     0.008 C 
ATOM     21  H10 <0> d          -2.756  -4.970  -1.561  0.00  0.00     0.071 H 
BRANCH  20  22
ATOM     22  C7  <0> d          -4.301  -5.248  -3.037  0.00  0.00    -0.057 C 
ATOM     23  H11 <0> d          -5.359  -5.011  -3.151  0.00  0.00     0.030 H 
ATOM     24  H12 <0> d          -3.724  -4.703  -3.784  0.00  0.00     0.030 H 
ATOM     25  H13 <0> d          -4.151  -6.319  -3.173  0.00  0.00     0.030 H 
ENDBRANCH  20  22
BRANCH  20  26
ATOM     26  C8  <0> d          -4.196  -3.377  -1.385  0.00  0.00    -0.057 C 
ATOM     27  H14 <0> d          -3.320  -2.848  -1.008  0.00  0.00     0.030 H 
ATOM     28  H15 <0> d          -4.523  -2.917  -2.318  0.00  0.00     0.030 H 
ATOM     29  H16 <0> d          -4.999  -3.320  -0.651  0.00  0.00     0.030 H 
ENDBRANCH  20  26
ENDBRANCH   1  20
BRANCH   2  30
ATOM     30  C10 <0> d          -6.670  -4.576  -0.824  0.00  0.00     0.074 A 
ATOM     31  C15 <0> d          -7.988  -4.535  -0.357  0.00  0.00     0.173 A 
ATOM     32  C14 <0> d          -8.961  -3.889  -1.099  0.00  0.00     0.194 A 
ATOM     33  F1  <0> d          -8.309  -5.120   0.817  0.00  0.00    -0.202 F 
ATOM     34  C13 <0> d          -8.631  -3.293  -2.308  0.00  0.00     0.158 A 
ATOM     35  F2  <0> d         -10.234  -3.842  -0.649  0.00  0.00    -0.200 F 
ATOM     36  C12 <0> d          -7.326  -3.337  -2.776  0.00  0.00    -0.041 A 
ATOM     37  F3  <0> d          -9.585  -2.668  -3.032  0.00  0.00    -0.203 F 
ATOM     38  C11 <0> d          -6.348  -3.972  -2.043  0.00  0.00    -0.062 A 
ATOM     39  H18 <0> d          -7.076  -2.870  -3.717  0.00  0.00     0.088 H 
ATOM     40  H17 <0> d          -5.333  -4.004  -2.410  0.00  0.00     0.085 H 
ENDBRANCH   2  30
TORSDOF 10
