REMARK  10 active torsions:
REMARK  status: ('A' for Active; 'I' for Inactive)
REMARK    1  A    between atoms: C1_1  and  C2_2 
REMARK    2  A    between atoms: C2_2  and  C3_4 
REMARK    3  A    between atoms: C2_2  and  C10_14 
REMARK    4  A    between atoms: C3_4  and  N1_5 
REMARK    5  A    between atoms: N1_5  and  C4_6 
REMARK       I    between atoms: N1_5  and  C7_9 
REMARK    6  A    between atoms: C7_9  and  C8_11 
REMARK    7  A    between atoms: C8_11  and  O2_12 
REMARK    8  A    between atoms: O2_12  and  C9_13 
REMARK    9  A    between atoms: C10_14  and  O4_16 
REMARK   10  A    between atoms: O4_16  and  C11_17 
ROOT
ATOM      1  N1  <0> d           2.159  -0.105   1.166  0.00  0.00    -0.345 N 
ATOM      2  C7  <0> d           3.075  -0.940   0.637  0.00  0.00     0.243 C 
ATOM      3  O1  <0> d           4.256  -0.675   0.719  0.00  0.00    -0.271 OA
ENDROOT
BRANCH   1   4
ATOM      4  C3  <0> d           0.742  -0.475   1.162  0.00  0.00     0.010 C 
ATOM      5  H5  <0> d           0.247  -0.026   2.023  0.00  0.00     0.065 H 
ATOM      6  H6  <0> d           0.650  -1.560   1.215  0.00  0.00     0.065 H 
BRANCH   4   7
ATOM      7  C2  <0> d           0.086   0.030  -0.124  0.00  0.00     0.042 C 
ATOM      8  H1  <0> d           0.636  -0.348  -0.986  0.00  0.00     0.057 H 
BRANCH   7   9
ATOM      9  C1  <0> d           0.104   1.560  -0.139  0.00  0.00    -0.063 C 
ATOM     10  H2  <0> d           1.135   1.911  -0.095  0.00  0.00     0.028 H 
ATOM     11  H3  <0> d          -0.363   1.920  -1.056  0.00  0.00     0.028 H 
ATOM     12  H4  <0> d          -0.446   1.938   0.722  0.00  0.00     0.028 H 
ENDBRANCH   7   9
BRANCH   7  13
ATOM     13  C10 <0> d          -1.339  -0.456  -0.186  0.00  0.00     0.263 C 
ATOM     14  O3  <0> d          -1.785  -1.136   0.708  0.00  0.00    -0.265 OA
BRANCH  13  15
ATOM     15  O4  <0> d          -2.114  -0.132  -1.233  0.00  0.00    -0.326 OA
BRANCH  15  16
ATOM     16  C11 <0> d          -3.455  -0.627  -1.226  0.00  0.00     0.013 C 
ATOM     17  H17 <0> d          -3.440  -1.716  -1.198  0.00  0.00     0.067 H 
ATOM     18  H18 <0> d          -3.977  -0.248  -0.347  0.00  0.00     0.067 H 
ATOM     19  H19 <0> d          -3.970  -0.293  -2.126  0.00  0.00     0.067 H 
ENDBRANCH  15  16
ENDBRANCH  13  15
ENDBRANCH   7  13
ENDBRANCH   4   7
ENDBRANCH   1   4
BRANCH   1  20
ATOM     20  C4  <0> d           2.581   1.174   1.744  0.00  0.00     0.015 A 
ATOM     21  C6  <0> d           2.344   1.385   3.240  0.00  0.00    -0.044 A 
ATOM     22  C5  <0> d           3.762   1.155   2.715  0.00  0.00    -0.044 A 
ATOM     23  H10 <0> d           2.087   2.391   3.572  0.00  0.00     0.036 H 
ATOM     24  H11 <0> d           1.874   0.573   3.795  0.00  0.00     0.036 H 
ATOM     25  H8  <0> d           4.226   0.191   2.925  0.00  0.00     0.036 H 
ATOM     26  H9  <0> d           4.439   2.009   2.702  0.00  0.00     0.036 H 
ATOM     27  H7  <0> d           2.479   2.041   1.091  0.00  0.00     0.072 H 
ENDBRANCH   1  20
BRANCH   2  28
ATOM     28  C8  <0> d           2.633  -2.203  -0.056  0.00  0.00     0.092 C 
ATOM     29  H12 <0> d           2.008  -2.788   0.619  0.00  0.00     0.088 H 
ATOM     30  H13 <0> d           2.062  -1.947  -0.948  0.00  0.00     0.088 H 
BRANCH  28  31
ATOM     31  O2  <0> d           3.780  -2.970  -0.427  0.00  0.00    -0.387 OA
BRANCH  31  32
ATOM     32  C9  <0> d           3.470  -4.194  -1.095  0.00  0.00     0.005 C 
ATOM     33  H14 <0> d           2.862  -4.820  -0.442  0.00  0.00     0.066 H 
ATOM     34  H15 <0> d           2.916  -3.979  -2.009  0.00  0.00     0.066 H 
ATOM     35  H16 <0> d           4.393  -4.717  -1.344  0.00  0.00     0.066 H 
ENDBRANCH  31  32
ENDBRANCH  28  31
ENDBRANCH   2  28
TORSDOF 10
