REMARK  12 active torsions:
REMARK  status: ('A' for Active; 'I' for Inactive)
REMARK    1  A    between atoms: C1_1  and  C2_2 
REMARK    2  A    between atoms: C2_2  and  C3_4 
REMARK    3  A    between atoms: C2_2  and  C14_19 
REMARK    4  A    between atoms: C3_4  and  N1_5 
REMARK    5  A    between atoms: N1_5  and  C4_6 
REMARK       I    between atoms: N1_5  and  C9_13 
REMARK    6  A    between atoms: C4_6  and  C5_7 
REMARK    7  A    between atoms: C9_13  and  C10_15 
REMARK    8  A    between atoms: C10_15  and  C11_16 
REMARK    9  A    between atoms: C10_15  and  C12_17 
REMARK   10  A    between atoms: C10_15  and  C13_18 
REMARK   11  A    between atoms: C14_19  and  O4_21 
REMARK   12  A    between atoms: O4_21  and  C15_22 
ROOT
ATOM      1  N1  <0> d           0.083  -0.291   2.975  0.00  0.00    -0.348 N 
ATOM      2  C9  <0> d          -0.444   0.949   2.972  0.00  0.00     0.227 C 
ATOM      3  O2  <0> d           0.146   1.857   2.425  0.00  0.00    -0.273 OA
ENDROOT
BRANCH   1   4
ATOM      4  C3  <0> d           1.390  -0.533   2.359  0.00  0.00     0.009 C 
ATOM      5  H6  <0> d           1.933  -1.279   2.940  0.00  0.00     0.065 H 
ATOM      6  H7  <0> d           1.960   0.396   2.337  0.00  0.00     0.065 H 
BRANCH   4   7
ATOM      7  C2  <0> d           1.194  -1.044   0.930  0.00  0.00     0.042 C 
ATOM      8  H1  <0> d           0.531  -1.910   0.942  0.00  0.00     0.057 H 
BRANCH   7   9
ATOM      9  C1  <0> d           0.574   0.062   0.074  0.00  0.00    -0.063 C 
ATOM     10  H3  <0> d           1.180   0.964   0.152  0.00  0.00     0.028 H 
ATOM     11  H4  <0> d           0.537  -0.262  -0.967  0.00  0.00     0.028 H 
ATOM     12  H5  <0> d          -0.436   0.271   0.425  0.00  0.00     0.028 H 
ENDBRANCH   7   9
BRANCH   7  13
ATOM     13  C14 <0> d           2.527  -1.441   0.351  0.00  0.00     0.263 C 
ATOM     14  O3  <0> d           3.532  -1.327   1.013  0.00  0.00    -0.265 OA
BRANCH  13  15
ATOM     15  O4  <0> d           2.599  -1.921  -0.901  0.00  0.00    -0.326 OA
BRANCH  15  16
ATOM     16  C15 <0> d           3.896  -2.277  -1.385  0.00  0.00     0.013 C 
ATOM     17  H25 <0> d           3.812  -2.650  -2.406  0.00  0.00     0.067 H 
ATOM     18  H26 <0> d           4.543  -1.400  -1.371  0.00  0.00     0.067 H 
ATOM     19  H27 <0> d           4.321  -3.053  -0.749  0.00  0.00     0.067 H 
ENDBRANCH  15  16
ENDBRANCH  13  15
ENDBRANCH   7  13
ENDBRANCH   4   7
ENDBRANCH   1   4
BRANCH   1  20
ATOM     20  C4  <0> d          -0.651  -1.397   3.594  0.00  0.00     0.022 C 
ATOM     21  H8  <0> d          -1.595  -1.028   3.995  0.00  0.00     0.068 H 
ATOM     22  H9  <0> d          -0.850  -2.165   2.846  0.00  0.00     0.068 H 
BRANCH  20  23
ATOM     23  C5  <0> d           0.186  -1.995   4.727  0.00  0.00     0.054 C 
ATOM     24  H2  <0> d           1.143  -2.342   4.336  0.00  0.00     0.085 H 
ATOM     25  O1  <0> d           0.404  -1.008   5.742  0.00  0.00    -0.384 OA
ATOM     26  C8  <0> d          -0.190  -1.439   6.978  0.00  0.00     0.020 C 
ATOM     27  C7  <0> d          -0.251  -2.984   6.881  0.00  0.00    -0.043 C 
ATOM     28  H14 <0> d          -1.194  -1.027   7.080  0.00  0.00     0.074 H 
ATOM     29  H15 <0> d           0.431  -1.137   7.821  0.00  0.00     0.074 H 
ATOM     30  C6  <0> d          -0.574  -3.173   5.374  0.00  0.00    -0.037 C 
ATOM     31  H12 <0> d          -1.048  -3.386   7.507  0.00  0.00     0.036 H 
ATOM     32  H13 <0> d           0.710  -3.432   7.136  0.00  0.00     0.036 H 
ATOM     33  H10 <0> d          -1.645  -3.089   5.194  0.00  0.00     0.036 H 
ATOM     34  H11 <0> d          -0.191  -4.127   5.012  0.00  0.00     0.036 H 
ENDBRANCH  20  23
ENDBRANCH   1  20
BRANCH   2  35
ATOM     35  C10 <0> d          -1.765   1.208   3.648  0.00  0.00     0.030 C 
BRANCH  35  36
ATOM     36  C11 <0> d          -2.113   2.694   3.536  0.00  0.00    -0.061 C 
ATOM     37  H16 <0> d          -2.182   2.972   2.484  0.00  0.00     0.029 H 
ATOM     38  H17 <0> d          -3.069   2.881   4.025  0.00  0.00     0.029 H 
ATOM     39  H18 <0> d          -1.336   3.287   4.018  0.00  0.00     0.029 H 
ENDBRANCH  35  36
BRANCH  35  40
ATOM     40  C12 <0> d          -2.856   0.376   2.971  0.00  0.00    -0.061 C 
ATOM     41  H19 <0> d          -2.616  -0.683   3.065  0.00  0.00     0.029 H 
ATOM     42  H20 <0> d          -3.815   0.576   3.450  0.00  0.00     0.029 H 
ATOM     43  H21 <0> d          -2.914   0.643   1.916  0.00  0.00     0.029 H 
ENDBRANCH  35  40
BRANCH  35  44
ATOM     44  C13 <0> d          -1.668   0.818   5.124  0.00  0.00    -0.061 C 
ATOM     45  H22 <0> d          -0.928   1.447   5.619  0.00  0.00     0.029 H 
ATOM     46  H23 <0> d          -2.639   0.954   5.601  0.00  0.00     0.029 H 
ATOM     47  H24 <0> d          -1.368  -0.227   5.205  0.00  0.00     0.029 H 
ENDBRANCH  35  44
ENDBRANCH   2  35
TORSDOF 12
