REMARK  10 active torsions:
REMARK  status: ('A' for Active; 'I' for Inactive)
REMARK    1  A    between atoms: C1_1  and  C2_2 
REMARK    2  A    between atoms: C2_2  and  C3_3 
REMARK    3  A    between atoms: C2_2  and  N1_4 
REMARK    4  A    between atoms: N1_4  and  C4_5 
REMARK       I    between atoms: N1_4  and  C8_11 
REMARK    5  A    between atoms: C4_5  and  C5_6 
REMARK    6  A    between atoms: C5_6  and  C6_7 
REMARK    7  A    between atoms: C6_7  and  O2_9 
REMARK    8  A    between atoms: O2_9  and  C7_10 
REMARK    9  A    between atoms: C8_11  and  C9_13 
REMARK   10  A    between atoms: C9_13  and  C10_14 
ROOT
ATOM      1  N1  <0> d          -1.370  -0.495  -0.118  0.00  0.00    -0.347 N 
ATOM      2  C8  <0> d          -2.291  -0.159   0.806  0.00  0.00     0.224 C 
ATOM      3  O3  <0> d          -3.448  -0.491   0.657  0.00  0.00    -0.273 OA
ENDROOT
BRANCH   1   4
ATOM      4  C2  <0> d           0.003   0.004   0.000  0.00  0.00     0.007 C 
ATOM      5  H4  <0> d           0.114   0.539   0.944  0.00  0.00     0.071 H 
BRANCH   4   6
ATOM      6  C1  <0> d           0.978  -1.174  -0.036  0.00  0.00    -0.057 C 
ATOM      7  H1  <0> d           2.002  -0.798  -0.012  0.00  0.00     0.030 H 
ATOM      8  H2  <0> d           0.806  -1.815   0.828  0.00  0.00     0.030 H 
ATOM      9  H3  <0> d           0.823  -1.746  -0.951  0.00  0.00     0.030 H 
ENDBRANCH   4   6
BRANCH   4  10
ATOM     10  C3  <0> d           0.303   0.952  -1.163  0.00  0.00    -0.057 C 
ATOM     11  H5  <0> d           0.109   0.442  -2.106  0.00  0.00     0.030 H 
ATOM     12  H6  <0> d          -0.335   1.833  -1.087  0.00  0.00     0.030 H 
ATOM     13  H7  <0> d           1.349   1.256  -1.122  0.00  0.00     0.030 H 
ENDBRANCH   4  10
ENDBRANCH   1   4
BRANCH   1  14
ATOM     14  C4  <0> d          -1.740  -1.359  -1.242  0.00  0.00     0.006 C 
ATOM     15  H8  <0> d          -2.792  -1.206  -1.486  0.00  0.00     0.065 H 
ATOM     16  H9  <0> d          -1.126  -1.112  -2.108  0.00  0.00     0.065 H 
BRANCH  14  17
ATOM     17  C5  <0> d          -1.514  -2.822  -0.857  0.00  0.00     0.031 C 
ATOM     18  H10 <0> d          -0.463  -2.975  -0.612  0.00  0.00     0.050 H 
ATOM     19  H11 <0> d          -2.128  -3.069   0.010  0.00  0.00     0.050 H 
BRANCH  17  20
ATOM     20  C6  <0> d          -1.895  -3.711  -2.012  0.00  0.00     0.259 C 
ATOM     21  O1  <0> d          -2.306  -3.224  -3.039  0.00  0.00    -0.265 OA
BRANCH  20  22
ATOM     22  O2  <0> d          -1.778  -5.043  -1.901  0.00  0.00    -0.326 OA
BRANCH  22  23
ATOM     23  C7  <0> d          -2.158  -5.824  -3.036  0.00  0.00     0.013 C 
ATOM     24  H12 <0> d          -1.542  -5.547  -3.891  0.00  0.00     0.067 H 
ATOM     25  H13 <0> d          -2.015  -6.882  -2.813  0.00  0.00     0.067 H 
ATOM     26  H14 <0> d          -3.207  -5.641  -3.269  0.00  0.00     0.067 H 
ENDBRANCH  22  23
ENDBRANCH  20  22
ENDBRANCH  17  20
ENDBRANCH  14  17
ENDBRANCH   1  14
BRANCH   2  27
ATOM     27  C9  <0> d          -1.884   0.629   2.025  0.00  0.00     0.033 C 
ATOM     28  H15 <0> d          -1.076   0.109   2.539  0.00  0.00     0.054 H 
ATOM     29  H16 <0> d          -1.544   1.619   1.720  0.00  0.00     0.054 H 
BRANCH  27  30
ATOM     30  C10 <0> d          -3.064   0.766   2.952  0.00  0.00    -0.049 A 
ATOM     31  C15 <0> d          -3.290  -0.187   3.928  0.00  0.00    -0.075 A 
ATOM     32  C14 <0> d          -4.369  -0.059   4.782  0.00  0.00    -0.061 A 
ATOM     33  H20 <0> d          -2.621  -1.029   4.026  0.00  0.00     0.084 H 
ATOM     34  C13 <0> d          -5.229   1.017   4.653  0.00  0.00     0.034 A 
ATOM     35  H19 <0> d          -4.542  -0.801   5.548  0.00  0.00     0.086 H 
ATOM     36  C12 <0> d          -5.006   1.967   3.673  0.00  0.00    -0.061 A 
ATOM     37 Cl1  <0> d          -6.588   1.175   5.722  0.00  0.00    -0.084 Cl
ATOM     38  C11 <0> d          -3.923   1.841   2.822  0.00  0.00    -0.075 A 
ATOM     39  H18 <0> d          -5.677   2.807   3.572  0.00  0.00     0.086 H 
ATOM     40  H17 <0> d          -3.749   2.582   2.057  0.00  0.00     0.084 H 
ENDBRANCH  27  30
ENDBRANCH   2  27
TORSDOF 10
