REMARK  13 active torsions:
REMARK  status: ('A' for Active; 'I' for Inactive)
REMARK    1  A    between atoms: C1_1  and  C2_2 
REMARK    2  A    between atoms: C2_2  and  C3_3 
REMARK    3  A    between atoms: C3_3  and  N1_4 
REMARK    4  A    between atoms: N1_4  and  C4_5 
REMARK       I    between atoms: N1_4  and  C9_13 
REMARK    5  A    between atoms: C4_5  and  C5_6 
REMARK    6  A    between atoms: C5_6  and  C6_8 
REMARK    7  A    between atoms: C5_6  and  C7_9 
REMARK    8  A    between atoms: C7_9  and  O2_11 
REMARK    9  A    between atoms: O2_11  and  C8_12 
REMARK   10  A    between atoms: C9_13  and  C10_15 
REMARK   11  A    between atoms: C10_15  and  C11_16 
REMARK   12  A    between atoms: C10_15  and  C12_17 
REMARK   13  A    between atoms: C10_15  and  C13_18 
ROOT
ATOM      1  N1  <0> d          -0.622  -2.067  -0.181  0.00  0.00    -0.351 N 
ATOM      2  C9  <0> d          -1.008  -2.592  -1.360  0.00  0.00     0.227 C 
ATOM      3  O3  <0> d          -1.213  -3.784  -1.455  0.00  0.00    -0.273 OA
ENDROOT
BRANCH   1   4
ATOM      4  C3  <0> d          -0.395  -0.624  -0.061  0.00  0.00    -0.003 C 
ATOM      5  H7  <0> d          -0.726  -0.285   0.921  0.00  0.00     0.064 H 
ATOM      6  H8  <0> d          -0.958  -0.102  -0.835  0.00  0.00     0.064 H 
BRANCH   4   7
ATOM      7  C2  <0> d           1.096  -0.327  -0.227  0.00  0.00    -0.053 C 
ATOM      8  H5  <0> d           1.419  -0.631  -1.223  0.00  0.00     0.034 H 
ATOM      9  H6  <0> d           1.663  -0.879   0.523  0.00  0.00     0.034 H 
BRANCH   7  10
ATOM     10  C1  <0> d           1.340   1.173  -0.049  0.00  0.00    -0.075 C 
ATOM     11  H2  <0> d           2.403   1.385  -0.167  0.00  0.00     0.027 H 
ATOM     12  H3  <0> d           0.774   1.725  -0.799  0.00  0.00     0.027 H 
ATOM     13  H4  <0> d           1.018   1.478   0.947  0.00  0.00     0.027 H 
ENDBRANCH   7  10
ENDBRANCH   4   7
ENDBRANCH   1   4
BRANCH   1  14
ATOM     14  C4  <0> d          -0.429  -2.938   0.981  0.00  0.00     0.009 C 
ATOM     15  H9  <0> d          -0.115  -3.926   0.646  0.00  0.00     0.065 H 
ATOM     16  H10 <0> d           0.338  -2.514   1.630  0.00  0.00     0.065 H 
BRANCH  14  17
ATOM     17  C5  <0> d          -1.743  -3.054   1.756  0.00  0.00     0.042 C 
ATOM     18  H1  <0> d          -2.102  -2.058   2.014  0.00  0.00     0.057 H 
BRANCH  17  19
ATOM     19  C6  <0> d          -2.785  -3.763   0.888  0.00  0.00    -0.063 C 
ATOM     20  H11 <0> d          -3.721  -3.846   1.439  0.00  0.00     0.028 H 
ATOM     21  H12 <0> d          -2.950  -3.188  -0.024  0.00  0.00     0.028 H 
ATOM     22  H13 <0> d          -2.426  -4.759   0.629  0.00  0.00     0.028 H 
ENDBRANCH  17  19
BRANCH  17  23
ATOM     23  C7  <0> d          -1.515  -3.849   3.016  0.00  0.00     0.263 C 
ATOM     24  O1  <0> d          -0.414  -4.277   3.269  0.00  0.00    -0.265 OA
BRANCH  23  25
ATOM     25  O2  <0> d          -2.535  -4.080   3.857  0.00  0.00    -0.326 OA
BRANCH  25  26
ATOM     26  C8  <0> d          -2.247  -4.840   5.033  0.00  0.00     0.013 C 
ATOM     27  H14 <0> d          -1.491  -4.323   5.624  0.00  0.00     0.067 H 
ATOM     28  H15 <0> d          -3.155  -4.954   5.624  0.00  0.00     0.067 H 
ATOM     29  H16 <0> d          -1.874  -5.824   4.747  0.00  0.00     0.067 H 
ENDBRANCH  25  26
ENDBRANCH  23  25
ENDBRANCH  17  23
ENDBRANCH  14  17
ENDBRANCH   1  14
BRANCH   2  30
ATOM     30  C10 <0> d          -1.186  -1.700  -2.561  0.00  0.00     0.030 C 
BRANCH  30  31
ATOM     31  C11 <0> d          -1.371  -2.559  -3.813  0.00  0.00    -0.061 C 
ATOM     32  H17 <0> d          -2.253  -3.189  -3.694  0.00  0.00     0.029 H 
ATOM     33  H18 <0> d          -1.499  -1.914  -4.681  0.00  0.00     0.029 H 
ATOM     34  H19 <0> d          -0.492  -3.188  -3.954  0.00  0.00     0.029 H 
ENDBRANCH  30  31
BRANCH  30  35
ATOM     35  C12 <0> d          -2.420  -0.817  -2.362  0.00  0.00    -0.061 C 
ATOM     36  H20 <0> d          -2.352  -0.309  -1.400  0.00  0.00     0.029 H 
ATOM     37  H21 <0> d          -2.470  -0.076  -3.160  0.00  0.00     0.029 H 
ATOM     38  H22 <0> d          -3.317  -1.436  -2.384  0.00  0.00     0.029 H 
ENDBRANCH  30  35
BRANCH  30  39
ATOM     39  C13 <0> d           0.052  -0.816  -2.727  0.00  0.00    -0.061 C 
ATOM     40  H23 <0> d           0.948  -1.436  -2.695  0.00  0.00     0.029 H 
ATOM     41  H24 <0> d           0.002  -0.298  -3.685  0.00  0.00     0.029 H 
ATOM     42  H25 <0> d           0.087  -0.085  -1.920  0.00  0.00     0.029 H 
ENDBRANCH  30  39
ENDBRANCH   2  30
TORSDOF 13
