REMARK  11 active torsions:
REMARK  status: ('A' for Active; 'I' for Inactive)
REMARK    1  A    between atoms: C1_1  and  C2_2 
REMARK    2  A    between atoms: C7_8  and  N1_10 
REMARK    3  A    between atoms: N1_10  and  C8_11 
REMARK       I    between atoms: N1_10  and  C13_19 
REMARK    4  A    between atoms: C8_11  and  C9_12 
REMARK    5  A    between atoms: C9_12  and  C10_14 
REMARK    6  A    between atoms: C9_12  and  C11_15 
REMARK    7  A    between atoms: C11_15  and  O2_17 
REMARK    8  A    between atoms: O2_17  and  C12_18 
REMARK    9  A    between atoms: C13_19  and  C14_21 
REMARK   10  A    between atoms: C14_21  and  O4_22 
REMARK   11  A    between atoms: O4_22  and  C15_23 
ROOT
ATOM      1  N1  <0> d           2.116  -0.003   1.230  0.00  0.00    -0.344 N 
ATOM      2  C13 <0> d           2.971  -0.394   0.265  0.00  0.00     0.243 C 
ATOM      3  O3  <0> d           4.133  -0.048   0.307  0.00  0.00    -0.271 OA
ENDROOT
BRANCH   1   4
ATOM      4  C7  <0> d           0.739  -0.502   1.236  0.00  0.00     0.018 C 
ATOM      5  C2  <0> d           0.516  -1.371   2.475  0.00  0.00    -0.038 C 
ATOM      6  H1  <0> d           0.691  -0.777   3.372  0.00  0.00     0.042 H 
ATOM      7  C3  <0> d          -0.922  -1.893   2.480  0.00  0.00    -0.060 C 
ATOM      8  C4  <0> d          -1.893  -0.711   2.505  0.00  0.00    -0.065 C 
ATOM      9  H7  <0> d          -1.096  -2.488   1.583  0.00  0.00     0.033 H 
ATOM     10  H8  <0> d          -1.081  -2.513   3.363  0.00  0.00     0.033 H 
ATOM     11  C5  <0> d          -1.671   0.158   1.266  0.00  0.00    -0.063 C 
ATOM     12  H9  <0> d          -2.918  -1.083   2.509  0.00  0.00     0.033 H 
ATOM     13  H10 <0> d          -1.719  -0.117   3.402  0.00  0.00     0.033 H 
ATOM     14  C6  <0> d          -0.232   0.680   1.260  0.00  0.00    -0.046 C 
ATOM     15  H11 <0> d          -1.845  -0.436   0.369  0.00  0.00     0.033 H 
ATOM     16  H12 <0> d          -2.362   1.000   1.284  0.00  0.00     0.033 H 
ATOM     17  H13 <0> d          -0.074   1.299   0.378  0.00  0.00     0.036 H 
ATOM     18  H14 <0> d          -0.058   1.274   2.157  0.00  0.00     0.036 H 
ATOM     19  H2  <0> d           0.565  -1.097   0.339  0.00  0.00     0.073 H 
BRANCH   5  20
ATOM     20  C1  <0> d           1.488  -2.554   2.450  0.00  0.00    -0.071 C 
ATOM     21  H4  <0> d           2.512  -2.182   2.446  0.00  0.00     0.028 H 
ATOM     22  H5  <0> d           1.329  -3.173   3.333  0.00  0.00     0.028 H 
ATOM     23  H6  <0> d           1.313  -3.148   1.553  0.00  0.00     0.028 H 
ENDBRANCH   5  20
ENDBRANCH   1   4
BRANCH   1  24
ATOM     24  C8  <0> d           2.564   0.922   2.275  0.00  0.00     0.010 C 
ATOM     25  H15 <0> d           3.338   1.576   1.874  0.00  0.00     0.065 H 
ATOM     26  H16 <0> d           1.720   1.523   2.614  0.00  0.00     0.065 H 
BRANCH  24  27
ATOM     27  C9  <0> d           3.128   0.125   3.453  0.00  0.00     0.042 C 
ATOM     28  H3  <0> d           2.383  -0.592   3.797  0.00  0.00     0.057 H 
BRANCH  27  29
ATOM     29  C10 <0> d           4.387  -0.622   3.007  0.00  0.00    -0.063 C 
ATOM     30  H17 <0> d           5.132   0.095   2.663  0.00  0.00     0.028 H 
ATOM     31  H18 <0> d           4.789  -1.189   3.847  0.00  0.00     0.028 H 
ATOM     32  H19 <0> d           4.136  -1.304   2.195  0.00  0.00     0.028 H 
ENDBRANCH  27  29
BRANCH  27  33
ATOM     33  C11 <0> d           3.475   1.068   4.577  0.00  0.00     0.263 C 
ATOM     34  O1  <0> d           3.290   2.255   4.448  0.00  0.00    -0.265 OA
BRANCH  33  35
ATOM     35  O2  <0> d           3.990   0.589   5.720  0.00  0.00    -0.326 OA
BRANCH  35  36
ATOM     36  C12 <0> d           4.295   1.539   6.742  0.00  0.00     0.013 C 
ATOM     37  H20 <0> d           4.704   1.021   7.610  0.00  0.00     0.067 H 
ATOM     38  H21 <0> d           5.029   2.253   6.367  0.00  0.00     0.067 H 
ATOM     39  H22 <0> d           3.387   2.069   7.029  0.00  0.00     0.067 H 
ENDBRANCH  35  36
ENDBRANCH  33  35
ENDBRANCH  27  33
ENDBRANCH  24  27
ENDBRANCH   1  24
BRANCH   2  40
ATOM     40  C14 <0> d           2.484  -1.260  -0.868  0.00  0.00     0.092 C 
ATOM     41  H23 <0> d           2.014  -2.157  -0.463  0.00  0.00     0.088 H 
ATOM     42  H24 <0> d           1.757  -0.707  -1.462  0.00  0.00     0.088 H 
BRANCH  40  43
ATOM     43  O4  <0> d           3.590  -1.633  -1.692  0.00  0.00    -0.387 OA
BRANCH  43  44
ATOM     44  C15 <0> d           3.235  -2.460  -2.802  0.00  0.00     0.005 C 
ATOM     45  H25 <0> d           2.781  -3.382  -2.437  0.00  0.00     0.066 H 
ATOM     46  H26 <0> d           2.524  -1.931  -3.437  0.00  0.00     0.066 H 
ATOM     47  H27 <0> d           4.129  -2.699  -3.378  0.00  0.00     0.066 H 
ENDBRANCH  43  44
ENDBRANCH  40  43
ENDBRANCH   2  40
TORSDOF 11
