REMARK  14 active torsions:
REMARK  status: ('A' for Active; 'I' for Inactive)
REMARK    1  A    between atoms: C1_1  and  C2_2 
REMARK    2  A    between atoms: C2_2  and  C3_3 
REMARK    3  A    between atoms: C3_3  and  C4_5 
REMARK    4  A    between atoms: C3_3  and  N1_6 
REMARK    5  A    between atoms: N1_6  and  C5_7 
REMARK       I    between atoms: N1_6  and  C10_15 
REMARK    6  A    between atoms: C5_7  and  C6_8 
REMARK    7  A    between atoms: C6_8  and  C7_10 
REMARK    8  A    between atoms: C6_8  and  C8_11 
REMARK    9  A    between atoms: C8_11  and  O2_13 
REMARK   10  A    between atoms: O2_13  and  C9_14 
REMARK   11  A    between atoms: C10_15  and  C11_17 
REMARK   12  A    between atoms: C11_17  and  C12_18 
REMARK   13  A    between atoms: C11_17  and  C13_19 
REMARK   14  A    between atoms: C11_17  and  C14_20 
ROOT
ATOM      1  N1  <0> d          -1.358   0.670  -1.121  0.00  0.00    -0.346 N 
ATOM      2  C10 <0> d          -1.444  -0.296  -2.058  0.00  0.00     0.227 C 
ATOM      3  O3  <0> d          -0.665  -1.226  -2.043  0.00  0.00    -0.273 OA
ENDROOT
BRANCH   1   4
ATOM      4  C3  <0> d          -0.340   0.583  -0.072  0.00  0.00     0.011 C 
ATOM      5  H1  <0> d          -0.349   1.499   0.519  0.00  0.00     0.072 H 
BRANCH   4   6
ATOM      6  C2  <0> d           1.038   0.403  -0.711  0.00  0.00    -0.050 C 
ATOM      7  H6  <0> d           1.002  -0.418  -1.427  0.00  0.00     0.035 H 
ATOM      8  H7  <0> d           1.772   0.177   0.063  0.00  0.00     0.035 H 
BRANCH   6   9
ATOM      9  C1  <0> d           1.439   1.691  -1.433  0.00  0.00    -0.075 C 
ATOM     10  H3  <0> d           2.421   1.562  -1.888  0.00  0.00     0.027 H 
ATOM     11  H4  <0> d           0.706   1.917  -2.207  0.00  0.00     0.027 H 
ATOM     12  H5  <0> d           1.475   2.512  -0.716  0.00  0.00     0.027 H 
ENDBRANCH   6   9
ENDBRANCH   4   6
BRANCH   4  13
ATOM     13  C4  <0> d          -0.642  -0.611   0.835  0.00  0.00    -0.057 C 
ATOM     14  H8  <0> d           0.059  -0.621   1.670  0.00  0.00     0.030 H 
ATOM     15  H9  <0> d          -1.660  -0.530   1.216  0.00  0.00     0.030 H 
ATOM     16  H10 <0> d          -0.540  -1.535   0.265  0.00  0.00     0.030 H 
ENDBRANCH   4  13
ENDBRANCH   1   4
BRANCH   1  17
ATOM     17  C5  <0> d          -2.282   1.806  -1.154  0.00  0.00     0.010 C 
ATOM     18  H11 <0> d          -3.036   1.639  -1.923  0.00  0.00     0.065 H 
ATOM     19  H12 <0> d          -2.769   1.905  -0.184  0.00  0.00     0.065 H 
BRANCH  17  20
ATOM     20  C6  <0> d          -1.506   3.086  -1.469  0.00  0.00     0.042 C 
ATOM     21  H2  <0> d          -0.673   3.186  -0.773  0.00  0.00     0.057 H 
BRANCH  20  22
ATOM     22  C7  <0> d          -0.970   3.018  -2.900  0.00  0.00    -0.063 C 
ATOM     23  H13 <0> d          -1.777   3.232  -3.601  0.00  0.00     0.028 H 
ATOM     24  H14 <0> d          -0.176   3.754  -3.026  0.00  0.00     0.028 H 
ATOM     25  H15 <0> d          -0.576   2.021  -3.094  0.00  0.00     0.028 H 
ENDBRANCH  20  22
BRANCH  20  26
ATOM     26  C8  <0> d          -2.422   4.275  -1.331  0.00  0.00     0.263 C 
ATOM     27  O1  <0> d          -3.576   4.115  -1.014  0.00  0.00    -0.265 OA
BRANCH  26  28
ATOM     28  O2  <0> d          -1.954   5.512  -1.561  0.00  0.00    -0.326 OA
BRANCH  28  29
ATOM     29  C9  <0> d          -2.877   6.593  -1.412  0.00  0.00     0.013 C 
ATOM     30  H16 <0> d          -3.256   6.608  -0.390  0.00  0.00     0.067 H 
ATOM     31  H17 <0> d          -2.372   7.535  -1.626  0.00  0.00     0.067 H 
ATOM     32  H18 <0> d          -3.708   6.460  -2.106  0.00  0.00     0.067 H 
ENDBRANCH  28  29
ENDBRANCH  26  28
ENDBRANCH  20  26
ENDBRANCH  17  20
ENDBRANCH   1  17
BRANCH   2  33
ATOM     33  C11 <0> d          -2.508  -0.221  -3.122  0.00  0.00     0.030 C 
BRANCH  33  34
ATOM     34  C12 <0> d          -2.340  -1.390  -4.095  0.00  0.00    -0.061 C 
ATOM     35  H19 <0> d          -2.435  -2.331  -3.552  0.00  0.00     0.029 H 
ATOM     36  H20 <0> d          -3.110  -1.336  -4.864  0.00  0.00     0.029 H 
ATOM     37  H21 <0> d          -1.356  -1.337  -4.560  0.00  0.00     0.029 H 
ENDBRANCH  33  34
BRANCH  33  38
ATOM     38  C13 <0> d          -3.889  -0.295  -2.469  0.00  0.00    -0.061 C 
ATOM     39  H22 <0> d          -4.035   0.574  -1.827  0.00  0.00     0.029 H 
ATOM     40  H23 <0> d          -4.657  -0.308  -3.243  0.00  0.00     0.029 H 
ATOM     41  H24 <0> d          -3.960  -1.204  -1.871  0.00  0.00     0.029 H 
ENDBRANCH  33  38
BRANCH  33  42
ATOM     42  C14 <0> d          -2.374   1.099  -3.884  0.00  0.00    -0.061 C 
ATOM     43  H25 <0> d          -1.361   1.192  -4.276  0.00  0.00     0.029 H 
ATOM     44  H26 <0> d          -3.086   1.116  -4.710  0.00  0.00     0.029 H 
ATOM     45  H27 <0> d          -2.580   1.930  -3.210  0.00  0.00     0.029 H 
ENDBRANCH  33  42
ENDBRANCH   2  33
TORSDOF 14
