REMARK  12 active torsions:
REMARK  status: ('A' for Active; 'I' for Inactive)
REMARK    1  A    between atoms: C1_1  and  C2_2 
REMARK    2  A    between atoms: C2_2  and  C3_4 
REMARK    3  A    between atoms: C2_2  and  C15_19 
REMARK    4  A    between atoms: C3_4  and  N1_5 
REMARK    5  A    between atoms: N1_5  and  C4_6 
REMARK       I    between atoms: N1_5  and  C10_13 
REMARK    6  A    between atoms: C4_6  and  C5_7 
REMARK    7  A    between atoms: C10_13  and  C11_15 
REMARK    8  A    between atoms: C11_15  and  C12_16 
REMARK    9  A    between atoms: C11_15  and  C13_17 
REMARK   10  A    between atoms: C11_15  and  C14_18 
REMARK   11  A    between atoms: C15_19  and  O3_21 
REMARK   12  A    between atoms: O3_21  and  C16_22 
ROOT
ATOM      1  N1  <0> d          -2.182  -0.700  -0.346  0.00  0.00    -0.345 N 
ATOM      2  C10 <0> d          -1.680   0.514  -0.645  0.00  0.00     0.227 C 
ATOM      3  O1  <0> d          -0.573   0.825  -0.258  0.00  0.00    -0.273 OA
ENDROOT
BRANCH   1   4
ATOM      4  C3  <0> d          -1.463  -1.583   0.577  0.00  0.00     0.010 C 
ATOM      5  H5  <0> d          -2.180  -2.114   1.204  0.00  0.00     0.065 H 
ATOM      6  H6  <0> d          -0.801  -0.989   1.206  0.00  0.00     0.065 H 
BRANCH   4   7
ATOM      7  C2  <0> d          -0.638  -2.593  -0.222  0.00  0.00     0.042 C 
ATOM      8  H1  <0> d          -1.299  -3.178  -0.861  0.00  0.00     0.057 H 
BRANCH   7   9
ATOM      9  C1  <0> d           0.381  -1.848  -1.088  0.00  0.00    -0.063 C 
ATOM     10  H2  <0> d           1.049  -2.567  -1.562  0.00  0.00     0.028 H 
ATOM     11  H3  <0> d          -0.143  -1.278  -1.855  0.00  0.00     0.028 H 
ATOM     12  H4  <0> d           0.961  -1.169  -0.463  0.00  0.00     0.028 H 
ENDBRANCH   7   9
BRANCH   7  13
ATOM     13  C15 <0> d           0.087  -3.512   0.727  0.00  0.00     0.263 C 
ATOM     14  O2  <0> d          -0.044  -3.374   1.920  0.00  0.00    -0.265 OA
BRANCH  13  15
ATOM     15  O3  <0> d           0.877  -4.485   0.246  0.00  0.00    -0.326 OA
BRANCH  15  16
ATOM     16  C16 <0> d           1.534  -5.320   1.203  0.00  0.00     0.013 C 
ATOM     17  H22 <0> d           2.174  -4.709   1.839  0.00  0.00     0.067 H 
ATOM     18  H23 <0> d           0.788  -5.825   1.817  0.00  0.00     0.067 H 
ATOM     19  H24 <0> d           2.139  -6.062   0.683  0.00  0.00     0.067 H 
ENDBRANCH  15  16
ENDBRANCH  13  15
ENDBRANCH   7  13
ENDBRANCH   4   7
ENDBRANCH   1   4
BRANCH   1  20
ATOM     20  C4  <0> d          -3.446  -1.138  -0.943  0.00  0.00     0.037 C 
ATOM     21  H7  <0> d          -3.748  -0.428  -1.713  0.00  0.00     0.074 H 
ATOM     22  H8  <0> d          -3.315  -2.124  -1.389  0.00  0.00     0.074 H 
BRANCH  20  23
ATOM     23  C5  <0> d          -4.508  -1.206   0.123  0.00  0.00     0.052 A 
ATOM     24  N2  <0> d          -4.244  -1.802   1.269  0.00  0.00    -0.264 NA
ATOM     25  C9  <0> d          -5.141  -1.880   2.233  0.00  0.00     0.003 A 
ATOM     26  C8  <0> d          -6.405  -1.346   2.068  0.00  0.00    -0.066 A 
ATOM     27  H12 <0> d          -4.887  -2.372   3.160  0.00  0.00     0.114 H 
ATOM     28  C7  <0> d          -6.721  -0.717   0.873  0.00  0.00    -0.080 A 
ATOM     29  H11 <0> d          -7.136  -1.417   2.859  0.00  0.00     0.085 H 
ATOM     30  C6  <0> d          -5.751  -0.648  -0.114  0.00  0.00    -0.058 A 
ATOM     31  H10 <0> d          -7.701  -0.289   0.716  0.00  0.00     0.083 H 
ATOM     32  H9  <0> d          -5.963  -0.166  -1.057  0.00  0.00     0.086 H 
ENDBRANCH  20  23
ENDBRANCH   1  20
BRANCH   2  33
ATOM     33  C11 <0> d          -2.493   1.486  -1.460  0.00  0.00     0.030 C 
BRANCH  33  34
ATOM     34  C12 <0> d          -1.833   2.865  -1.418  0.00  0.00    -0.061 C 
ATOM     35  H13 <0> d          -0.826   2.799  -1.830  0.00  0.00     0.029 H 
ATOM     36  H14 <0> d          -2.421   3.568  -2.008  0.00  0.00     0.029 H 
ATOM     37  H15 <0> d          -1.781   3.212  -0.386  0.00  0.00     0.029 H 
ENDBRANCH  33  34
BRANCH  33  38
ATOM     38  C13 <0> d          -2.566   0.999  -2.909  0.00  0.00    -0.061 C 
ATOM     39  H16 <0> d          -2.885  -0.043  -2.927  0.00  0.00     0.029 H 
ATOM     40  H17 <0> d          -3.283   1.607  -3.461  0.00  0.00     0.029 H 
ATOM     41  H18 <0> d          -1.583   1.087  -3.372  0.00  0.00     0.029 H 
ENDBRANCH  33  38
BRANCH  33  42
ATOM     42  C14 <0> d          -3.907   1.579  -0.882  0.00  0.00    -0.061 C 
ATOM     43  H19 <0> d          -3.850   1.847   0.173  0.00  0.00     0.029 H 
ATOM     44  H20 <0> d          -4.470   2.341  -1.421  0.00  0.00     0.029 H 
ATOM     45  H21 <0> d          -4.406   0.616  -0.986  0.00  0.00     0.029 H 
ENDBRANCH  33  42
ENDBRANCH   2  33
TORSDOF 12
