REMARK  12 active torsions:
REMARK  status: ('A' for Active; 'I' for Inactive)
REMARK    1  A    between atoms: C1_1  and  C2_2 
REMARK    2  A    between atoms: C2_2  and  C3_4 
REMARK    3  A    between atoms: C2_2  and  C15_19 
REMARK    4  A    between atoms: C3_4  and  N1_5 
REMARK    5  A    between atoms: N1_5  and  C4_6 
REMARK       I    between atoms: N1_5  and  C10_13 
REMARK    6  A    between atoms: C4_6  and  C5_7 
REMARK    7  A    between atoms: C10_13  and  C11_15 
REMARK    8  A    between atoms: C11_15  and  C12_16 
REMARK    9  A    between atoms: C11_15  and  C13_17 
REMARK   10  A    between atoms: C11_15  and  C14_18 
REMARK   11  A    between atoms: C15_19  and  O3_21 
REMARK   12  A    between atoms: O3_21  and  C16_22 
ROOT
ATOM      1  N1  <0> d           0.203  -0.264   2.314  0.00  0.00    -0.346 N 
ATOM      2  C10 <0> d           0.261   0.924   2.947  0.00  0.00     0.227 C 
ATOM      3  O1  <0> d          -0.453   1.137   3.904  0.00  0.00    -0.273 OA
ENDROOT
BRANCH   1   4
ATOM      4  C3  <0> d           0.943  -0.466   1.065  0.00  0.00     0.009 C 
ATOM      5  H5  <0> d           1.544  -1.371   1.141  0.00  0.00     0.065 H 
ATOM      6  H6  <0> d           1.595   0.390   0.887  0.00  0.00     0.065 H 
BRANCH   4   7
ATOM      7  C2  <0> d          -0.044  -0.606  -0.096  0.00  0.00     0.042 C 
ATOM      8  H1  <0> d          -0.740  -1.418   0.115  0.00  0.00     0.057 H 
BRANCH   7   9
ATOM      9  C1  <0> d          -0.822   0.701  -0.264  0.00  0.00    -0.063 C 
ATOM     10  H2  <0> d          -0.214   1.418  -0.816  0.00  0.00     0.028 H 
ATOM     11  H3  <0> d          -1.743   0.508  -0.813  0.00  0.00     0.028 H 
ATOM     12  H4  <0> d          -1.063   1.109   0.718  0.00  0.00     0.028 H 
ENDBRANCH   7   9
BRANCH   7  13
ATOM     13  C15 <0> d           0.711  -0.907  -1.364  0.00  0.00     0.263 C 
ATOM     14  O2  <0> d           1.915  -1.001  -1.342  0.00  0.00    -0.265 OA
BRANCH  13  15
ATOM     15  O3  <0> d           0.046  -1.072  -2.518  0.00  0.00    -0.326 OA
BRANCH  15  16
ATOM     16  C16 <0> d           0.826  -1.356  -3.682  0.00  0.00     0.013 C 
ATOM     17  H22 <0> d           0.167  -1.466  -4.543  0.00  0.00     0.067 H 
ATOM     18  H23 <0> d           1.523  -0.538  -3.860  0.00  0.00     0.067 H 
ATOM     19  H24 <0> d           1.382  -2.281  -3.529  0.00  0.00     0.067 H 
ENDBRANCH  15  16
ENDBRANCH  13  15
ENDBRANCH   7  13
ENDBRANCH   4   7
ENDBRANCH   1   4
BRANCH   1  20
ATOM     20  C4  <0> d          -0.599  -1.354   2.874  0.00  0.00     0.023 C 
ATOM     21  H7  <0> d          -1.443  -0.938   3.425  0.00  0.00     0.071 H 
ATOM     22  H8  <0> d          -0.968  -1.986   2.066  0.00  0.00     0.071 H 
BRANCH  20  23
ATOM     23  C5  <0> d           0.253  -2.177   3.806  0.00  0.00    -0.023 A 
ATOM     24  C9  <0> d           0.330  -1.858   5.148  0.00  0.00     0.009 A 
ATOM     25  N2  <0> d           1.069  -2.577   5.971  0.00  0.00    -0.273 NA
ATOM     26  H12 <0> d          -0.224  -1.012   5.529  0.00  0.00     0.115 H 
ATOM     27  C8  <0> d           1.767  -3.613   5.550  0.00  0.00     0.002 A 
ATOM     28  C7  <0> d           1.742  -3.989   4.220  0.00  0.00    -0.065 A 
ATOM     29  H11 <0> d           2.364  -4.176   6.253  0.00  0.00     0.114 H 
ATOM     30  C6  <0> d           0.973  -3.261   3.326  0.00  0.00    -0.072 A 
ATOM     31  H10 <0> d           2.316  -4.839   3.882  0.00  0.00     0.085 H 
ATOM     32  H9  <0> d           0.934  -3.531   2.281  0.00  0.00     0.084 H 
ENDBRANCH  20  23
ENDBRANCH   1  20
BRANCH   2  33
ATOM     33  C11 <0> d           1.214   1.989   2.466  0.00  0.00     0.030 C 
BRANCH  33  34
ATOM     34  C12 <0> d           1.154   3.191   3.410  0.00  0.00    -0.061 C 
ATOM     35  H13 <0> d           1.436   2.878   4.415  0.00  0.00     0.029 H 
ATOM     36  H14 <0> d           1.842   3.961   3.062  0.00  0.00     0.029 H 
ATOM     37  H15 <0> d           0.140   3.591   3.425  0.00  0.00     0.029 H 
ENDBRANCH  33  34
BRANCH  33  38
ATOM     38  C13 <0> d           2.637   1.428   2.444  0.00  0.00    -0.061 C 
ATOM     39  H16 <0> d           2.693   0.609   1.727  0.00  0.00     0.029 H 
ATOM     40  H17 <0> d           3.333   2.214   2.153  0.00  0.00     0.029 H 
ATOM     41  H18 <0> d           2.898   1.060   3.437  0.00  0.00     0.029 H 
ENDBRANCH  33  38
BRANCH  33  42
ATOM     42  C14 <0> d           0.817   2.428   1.055  0.00  0.00    -0.061 C 
ATOM     43  H19 <0> d          -0.142   2.944   1.091  0.00  0.00     0.029 H 
ATOM     44  H20 <0> d           1.577   3.101   0.657  0.00  0.00     0.029 H 
ATOM     45  H21 <0> d           0.734   1.552   0.411  0.00  0.00     0.029 H 
ENDBRANCH  33  42
ENDBRANCH   2  33
TORSDOF 12
