REMARK  10 active torsions:
REMARK  status: ('A' for Active; 'I' for Inactive)
REMARK    1  A    between atoms: C1_1  and  C2_2 
REMARK    2  A    between atoms: C2_2  and  C3_4 
REMARK    3  A    between atoms: C2_2  and  C15_19 
REMARK    4  A    between atoms: C3_4  and  N1_5 
REMARK    5  A    between atoms: N1_5  and  C4_6 
REMARK       I    between atoms: N1_5  and  C12_14 
REMARK    6  A    between atoms: C12_14  and  C13_16 
REMARK    7  A    between atoms: C13_16  and  O2_17 
REMARK    8  A    between atoms: O2_17  and  C14_18 
REMARK    9  A    between atoms: C15_19  and  O4_21 
REMARK   10  A    between atoms: O4_21  and  C16_22 
ROOT
ATOM      1  N1  <0> d          -0.203  -0.015  -2.435  0.00  0.00    -0.345 N 
ATOM      2  C12 <0> d          -1.298  -0.701  -2.821  0.00  0.00     0.243 C 
ATOM      3  O1  <0> d          -1.972  -0.297  -3.745  0.00  0.00    -0.271 OA
ENDROOT
BRANCH   1   4
ATOM      4  C3  <0> d           0.611  -0.503  -1.319  0.00  0.00     0.010 C 
ATOM      5  H5  <0> d           1.627  -0.121  -1.416  0.00  0.00     0.065 H 
ATOM      6  H6  <0> d           0.629  -1.593  -1.332  0.00  0.00     0.065 H 
BRANCH   4   7
ATOM      7  C2  <0> d           0.008  -0.019   0.002  0.00  0.00     0.042 C 
ATOM      8  H1  <0> d          -1.042  -0.307   0.049  0.00  0.00     0.057 H 
BRANCH   7   9
ATOM      9  C1  <0> d           0.123   1.504   0.087  0.00  0.00    -0.063 C 
ATOM     10  H2  <0> d           1.175   1.788   0.120  0.00  0.00     0.028 H 
ATOM     11  H3  <0> d          -0.347   1.954  -0.788  0.00  0.00     0.028 H 
ATOM     12  H4  <0> d          -0.377   1.857   0.989  0.00  0.00     0.028 H 
ENDBRANCH   7   9
BRANCH   7  13
ATOM     13  C15 <0> d           0.753  -0.644   1.153  0.00  0.00     0.263 C 
ATOM     14  O3  <0> d           1.671  -1.399   0.939  0.00  0.00    -0.265 OA
BRANCH  13  15
ATOM     15  O4  <0> d           0.396  -0.362   2.416  0.00  0.00    -0.326 OA
BRANCH  15  16
ATOM     16  C16 <0> d           1.145  -0.990   3.458  0.00  0.00     0.013 C 
ATOM     17  H27 <0> d           2.193  -0.700   3.377  0.00  0.00     0.067 H 
ATOM     18  H28 <0> d           0.754  -0.677   4.426  0.00  0.00     0.067 H 
ATOM     19  H29 <0> d           1.060  -2.073   3.364  0.00  0.00     0.067 H 
ENDBRANCH  15  16
ENDBRANCH  13  15
ENDBRANCH   7  13
ENDBRANCH   4   7
ENDBRANCH   1   4
BRANCH   1  20
ATOM     20  C4  <0> d           0.172   1.218  -3.131  0.00  0.00     0.015 C 
ATOM     21  C11 <0> d           0.559   0.891  -4.575  0.00  0.00    -0.046 C 
ATOM     22  C10 <0> d           1.317   2.074  -5.180  0.00  0.00    -0.063 C 
ATOM     23  H20 <0> d           1.195   0.006  -4.589  0.00  0.00     0.036 H 
ATOM     24  H21 <0> d          -0.342   0.700  -5.159  0.00  0.00     0.036 H 
ATOM     25  C9  <0> d           2.339   2.596  -4.168  0.00  0.00    -0.065 C 
ATOM     26  H18 <0> d           0.613   2.868  -5.428  0.00  0.00     0.033 H 
ATOM     27  H19 <0> d           1.834   1.750  -6.084  0.00  0.00     0.033 H 
ATOM     28  C8  <0> d           1.931   3.998  -3.709  0.00  0.00    -0.065 C 
ATOM     29  H16 <0> d           3.323   2.639  -4.635  0.00  0.00     0.033 H 
ATOM     30  H17 <0> d           2.373   1.928  -3.308  0.00  0.00     0.033 H 
ATOM     31  C7  <0> d           0.768   3.892  -2.722  0.00  0.00    -0.065 C 
ATOM     32  H14 <0> d           1.623   4.588  -4.573  0.00  0.00     0.033 H 
ATOM     33  H15 <0> d           2.778   4.482  -3.223  0.00  0.00     0.033 H 
ATOM     34  C6  <0> d          -0.524   3.591  -3.485  0.00  0.00    -0.063 C 
ATOM     35  H12 <0> d           0.661   4.834  -2.184  0.00  0.00     0.033 H 
ATOM     36  H13 <0> d           0.966   3.089  -2.012  0.00  0.00     0.033 H 
ATOM     37  C5  <0> d          -1.013   2.186  -3.128  0.00  0.00    -0.046 C 
ATOM     38  H10 <0> d          -0.334   3.648  -4.557  0.00  0.00     0.033 H 
ATOM     39  H11 <0> d          -1.285   4.322  -3.212  0.00  0.00     0.033 H 
ATOM     40  H8  <0> d          -1.750   1.861  -3.862  0.00  0.00     0.036 H 
ATOM     41  H9  <0> d          -1.467   2.201  -2.138  0.00  0.00     0.036 H 
ATOM     42  H7  <0> d           1.019   1.679  -2.623  0.00  0.00     0.072 H 
ENDBRANCH   1  20
BRANCH   2  43
ATOM     43  C13 <0> d          -1.684  -1.969  -2.105  0.00  0.00     0.092 C 
ATOM     44  H22 <0> d          -0.875  -2.695  -2.189  0.00  0.00     0.088 H 
ATOM     45  H23 <0> d          -1.868  -1.751  -1.053  0.00  0.00     0.088 H 
BRANCH  43  46
ATOM     46  O2  <0> d          -2.869  -2.507  -2.694  0.00  0.00    -0.387 OA
BRANCH  46  47
ATOM     47  C14 <0> d          -3.324  -3.717  -2.085  0.00  0.00     0.005 C 
ATOM     48  H24 <0> d          -2.549  -4.479  -2.169  0.00  0.00     0.066 H 
ATOM     49  H25 <0> d          -3.541  -3.535  -1.033  0.00  0.00     0.066 H 
ATOM     50  H26 <0> d          -4.227  -4.061  -2.589  0.00  0.00     0.066 H 
ENDBRANCH  46  47
ENDBRANCH  43  46
ENDBRANCH   2  43
TORSDOF 10
