REMARK  11 active torsions:
REMARK  status: ('A' for Active; 'I' for Inactive)
REMARK    1  A    between atoms: C1_1  and  C2_2 
REMARK    2  A    between atoms: C2_2  and  O1_3 
REMARK    3  A    between atoms: O1_3  and  C3_4 
REMARK    4  A    between atoms: C3_4  and  C4_6 
REMARK    5  A    between atoms: C4_6  and  C5_7 
REMARK    6  A    between atoms: C5_7  and  N1_8 
REMARK    7  A    between atoms: N1_8  and  C6_9 
REMARK       I    between atoms: N1_8  and  C12_15 
REMARK    8  A    between atoms: C12_15  and  C13_17 
REMARK    9  A    between atoms: C13_17  and  C14_18 
REMARK   10  A    between atoms: C13_17  and  C15_19 
REMARK   11  A    between atoms: C13_17  and  C16_20 
ROOT
ATOM      1  N1  <0> d           2.174  -4.419   3.973  0.00  0.00    -0.346 N 
ATOM      2  C12 <0> d           3.399  -4.612   3.444  0.00  0.00     0.227 C 
ATOM      3  O3  <0> d           3.549  -4.597   2.241  0.00  0.00    -0.273 OA
ENDROOT
BRANCH   1   4
ATOM      4  C5  <0> d           1.044  -4.085   3.102  0.00  0.00     0.006 C 
ATOM      5  H8  <0> d           0.114  -4.397   3.578  0.00  0.00     0.065 H 
ATOM      6  H9  <0> d           1.156  -4.602   2.149  0.00  0.00     0.065 H 
BRANCH   4   7
ATOM      7  C4  <0> d           1.013  -2.575   2.864  0.00  0.00     0.031 C 
ATOM      8  H6  <0> d           1.977  -2.249   2.471  0.00  0.00     0.050 H 
ATOM      9  H7  <0> d           0.812  -2.062   3.804  0.00  0.00     0.050 H 
BRANCH   7  10
ATOM     10  C3  <0> d          -0.071  -2.245   1.871  0.00  0.00     0.260 C 
ATOM     11  O2  <0> d          -0.750  -3.128   1.402  0.00  0.00    -0.265 OA
BRANCH  10  12
ATOM     12  O1  <0> d          -0.283  -0.970   1.507  0.00  0.00    -0.322 OA
BRANCH  12  13
ATOM     13  C2  <0> d          -1.328  -0.731   0.562  0.00  0.00     0.025 C 
ATOM     14  H4  <0> d          -2.276  -1.080   0.971  0.00  0.00     0.074 H 
ATOM     15  H5  <0> d          -1.111  -1.267  -0.362  0.00  0.00     0.074 H 
BRANCH  13  16
ATOM     16  C1  <0> d          -1.419   0.769   0.272  0.00  0.00    -0.056 C 
ATOM     17  H1  <0> d          -0.471   1.118  -0.138  0.00  0.00     0.030 H 
ATOM     18  H2  <0> d          -2.216   0.952  -0.449  0.00  0.00     0.030 H 
ATOM     19  H3  <0> d          -1.636   1.305   1.196  0.00  0.00     0.030 H 
ENDBRANCH  13  16
ENDBRANCH  12  13
ENDBRANCH  10  12
ENDBRANCH   7  10
ENDBRANCH   4   7
ENDBRANCH   1   4
BRANCH   1  20
ATOM     20  C6  <0> d           1.972  -4.544   5.419  0.00  0.00     0.014 C 
ATOM     21  C11 <0> d           1.427  -3.227   5.973  0.00  0.00    -0.046 C 
ATOM     22  C10 <0> d           1.216  -3.358   7.483  0.00  0.00    -0.063 C 
ATOM     23  H19 <0> d           2.138  -2.426   5.774  0.00  0.00     0.036 H 
ATOM     24  H20 <0> d           0.476  -2.997   5.493  0.00  0.00     0.036 H 
ATOM     25  C9  <0> d           0.217  -4.482   7.763  0.00  0.00    -0.065 C 
ATOM     26  H17 <0> d           0.827  -2.419   7.878  0.00  0.00     0.033 H 
ATOM     27  H18 <0> d           2.167  -3.588   7.964  0.00  0.00     0.033 H 
ATOM     28  C8  <0> d           0.763  -5.799   7.209  0.00  0.00    -0.063 C 
ATOM     29  H15 <0> d          -0.734  -4.252   7.283  0.00  0.00     0.033 H 
ATOM     30  H16 <0> d           0.067  -4.575   8.839  0.00  0.00     0.033 H 
ATOM     31  C7  <0> d           0.974  -5.669   5.699  0.00  0.00    -0.046 C 
ATOM     32  H13 <0> d           0.051  -6.600   7.409  0.00  0.00     0.033 H 
ATOM     33  H14 <0> d           1.714  -6.030   7.690  0.00  0.00     0.033 H 
ATOM     34  H11 <0> d           0.023  -5.438   5.218  0.00  0.00     0.036 H 
ATOM     35  H12 <0> d           1.363  -6.607   5.304  0.00  0.00     0.036 H 
ATOM     36  H10 <0> d           2.923  -4.775   5.899  0.00  0.00     0.072 H 
ENDBRANCH   1  20
BRANCH   2  37
ATOM     37  C13 <0> d           4.582  -4.845   4.348  0.00  0.00     0.030 C 
BRANCH  37  38
ATOM     38  C14 <0> d           5.854  -4.955   3.506  0.00  0.00    -0.061 C 
ATOM     39  H21 <0> d           6.000  -4.030   2.947  0.00  0.00     0.029 H 
ATOM     40  H22 <0> d           6.710  -5.123   4.159  0.00  0.00     0.029 H 
ATOM     41  H23 <0> d           5.758  -5.788   2.810  0.00  0.00     0.029 H 
ENDBRANCH  37  38
BRANCH  37  42
ATOM     42  C15 <0> d           4.716  -3.675   5.325  0.00  0.00    -0.061 C 
ATOM     43  H24 <0> d           3.829  -3.625   5.957  0.00  0.00     0.029 H 
ATOM     44  H25 <0> d           5.598  -3.821   5.948  0.00  0.00     0.029 H 
ATOM     45  H26 <0> d           4.816  -2.744   4.765  0.00  0.00     0.029 H 
ENDBRANCH  37  42
BRANCH  37  46
ATOM     46  C16 <0> d           4.376  -6.142   5.133  0.00  0.00    -0.061 C 
ATOM     47  H27 <0> d           4.550  -6.995   4.476  0.00  0.00     0.029 H 
ATOM     48  H28 <0> d           5.077  -6.178   5.967  0.00  0.00     0.029 H 
ATOM     49  H29 <0> d           3.355  -6.179   5.513  0.00  0.00     0.029 H 
ENDBRANCH  37  46
ENDBRANCH   2  37
TORSDOF 11
