REMARK  6 active torsions:
REMARK  status: ('A' for Active; 'I' for Inactive)
REMARK    1  A    between atoms: C1_1  and  C2_2 
REMARK    2  A    between atoms: C2_2  and  C3_3 
REMARK    3  A    between atoms: C2_2  and  C4_4 
REMARK       I    between atoms: N1_7  and  C13_17 
REMARK    4  A    between atoms: N2_12  and  C9_13 
REMARK    5  A    between atoms: C9_13  and  C10_14 
REMARK    6  A    between atoms: C13_17  and  C14_19 
ROOT
ATOM      1  C4  <0> d          -0.865   1.683   0.594  0.00  0.00     0.033 C 
ATOM      2  H1  <0> d          -1.682   1.791   1.307  0.00  0.00     0.075 H 
ATOM      3  C5  <0> d          -1.279   0.714  -0.518  0.00  0.00     0.017 C 
ATOM      4  N1  <0> d          -0.454   0.941  -1.702  0.00  0.00    -0.344 N 
ATOM      5  C6  <0> d           0.991   0.720  -1.708  0.00  0.00     0.006 C 
ATOM      6  C7  <0> d           1.661   1.690  -0.728  0.00  0.00     0.024 C 
ATOM      7  C8  <0> d           1.511   1.142   0.673  0.00  0.00     0.221 C 
ATOM      8  O1  <0> d           2.479   0.697   1.252  0.00  0.00    -0.273 OA
ATOM      9  N2  <0> d           0.318   1.145   1.279  0.00  0.00    -0.345 N 
ATOM     10  C13 <0> d          -1.048   1.371  -2.833  0.00  0.00     0.270 C 
ATOM     11  O2  <0> d          -2.230   1.663  -2.826  0.00  0.00    -0.266 OA
ATOM     12  H10 <0> d          -1.145  -0.311  -0.174  0.00  0.00     0.067 H 
ATOM     13  H11 <0> d          -2.327   0.877  -0.770  0.00  0.00     0.067 H 
ATOM     14  H12 <0> d           1.202  -0.305  -1.406  0.00  0.00     0.065 H 
ATOM     15  H13 <0> d           1.380   0.891  -2.712  0.00  0.00     0.065 H 
ATOM     16  H14 <0> d           2.720   1.784  -0.973  0.00  0.00     0.049 H 
ATOM     17  H15 <0> d           1.181   2.666  -0.793  0.00  0.00     0.049 H 
ENDROOT
BRANCH   1  18
ATOM     18  C2  <0> d          -0.530   3.047  -0.013  0.00  0.00    -0.040 C 
ATOM     19  H6  <0> d          -0.118   2.909  -1.012  0.00  0.00     0.042 H 
BRANCH  18  20
ATOM     20  C1  <0> d          -1.801   3.894  -0.098  0.00  0.00    -0.071 C 
ATOM     21  H3  <0> d          -1.562   4.865  -0.530  0.00  0.00     0.028 H 
ATOM     22  H4  <0> d          -2.534   3.387  -0.726  0.00  0.00     0.028 H 
ATOM     23  H5  <0> d          -2.213   4.032   0.902  0.00  0.00     0.028 H 
ENDBRANCH  18  20
BRANCH  18  24
ATOM     24  C3  <0> d           0.499   3.759   0.869  0.00  0.00    -0.071 C 
ATOM     25  H7  <0> d           0.087   3.897   1.869  0.00  0.00     0.028 H 
ATOM     26  H8  <0> d           1.405   3.155   0.930  0.00  0.00     0.028 H 
ATOM     27  H9  <0> d           0.738   4.730   0.437  0.00  0.00     0.028 H 
ENDBRANCH  18  24
ENDBRANCH   1  18
BRANCH   9  28
ATOM     28  C9  <0> d           0.188   0.604   2.635  0.00  0.00     0.002 C 
ATOM     29  H16 <0> d           1.125   0.747   3.174  0.00  0.00     0.065 H 
ATOM     30  H17 <0> d          -0.615   1.123   3.157  0.00  0.00     0.065 H 
BRANCH  28  31
ATOM     31  C10 <0> d          -0.134  -0.890   2.559  0.00  0.00    -0.038 A 
ATOM     32  C12 <0> d          -0.193  -1.667   3.875  0.00  0.00    -0.060 A 
ATOM     33  C11 <0> d          -1.483  -1.351   3.115  0.00  0.00    -0.060 A 
ATOM     34  H21 <0> d           0.156  -2.700   3.866  0.00  0.00     0.033 H 
ATOM     35  H22 <0> d          -0.003  -1.114   4.795  0.00  0.00     0.033 H 
ATOM     36  H19 <0> d          -2.141  -0.590   3.534  0.00  0.00     0.033 H 
ATOM     37  H20 <0> d          -1.982  -2.175   2.606  0.00  0.00     0.033 H 
ATOM     38  H18 <0> d           0.255  -1.411   1.684  0.00  0.00     0.042 H 
ENDBRANCH  28  31
ENDBRANCH   9  28
BRANCH  10  39
ATOM     39  C14 <0> d          -0.271   1.488  -4.071  0.00  0.00     0.100 A 
ATOM     40  N3  <0> d           0.138   0.449  -4.877  0.00  0.00    -0.361 N 
ATOM     41  C17 <0> d           0.828   0.959  -5.925  0.00  0.00    -0.022 A 
ATOM     42  H2  <0> d          -0.041  -0.492  -4.721  0.00  0.00     0.165 HD
ATOM     43  C16 <0> d           0.878   2.307  -5.803  0.00  0.00    -0.066 A 
ATOM     44  H25 <0> d           1.270   0.384  -6.726  0.00  0.00     0.111 H 
ATOM     45  C15 <0> d           0.189   2.658  -4.637  0.00  0.00    -0.050 A 
ATOM     46  H24 <0> d           1.364   2.990  -6.484  0.00  0.00     0.085 H 
ATOM     47  H23 <0> d           0.044   3.657  -4.254  0.00  0.00     0.087 H 
ENDBRANCH  10  39
TORSDOF 6
