REMARK  8 active torsions:
REMARK  status: ('A' for Active; 'I' for Inactive)
REMARK    1  A    between atoms: C1_1  and  C2_2 
REMARK    2  A    between atoms: C2_2  and  C3_3 
REMARK    3  A    between atoms: C3_3  and  C4_5 
REMARK    4  A    between atoms: C3_3  and  N1_7 
REMARK    5  A    between atoms: C4_5  and  O1_6 
REMARK    6  A    between atoms: C10_14  and  O3_18 
REMARK    7  A    between atoms: O3_18  and  C13_19 
REMARK    8  A    between atoms: C13_19  and  C14_20 
ROOT
ATOM      1  N1  <0> d          -0.008  -0.140   2.444  0.00  0.00    -0.320 N 
ATOM      2  C5  <0> d           0.488   0.708   3.534  0.00  0.00     0.126 A 
ATOM      3  H2  <0> d           0.737   1.699   3.154  0.00  0.00     0.104 H 
ATOM      4  C6  <0> d          -0.634   0.803   4.538  0.00  0.00    -0.003 A 
ATOM      5  C7  <0> d          -0.765   1.446   5.745  0.00  0.00    -0.073 A 
ATOM      6  C8  <0> d          -1.948   1.347   6.461  0.00  0.00    -0.080 A 
ATOM      7  C9  <0> d          -3.001   0.604   5.966  0.00  0.00    -0.050 A 
ATOM      8  C10 <0> d          -2.884  -0.051   4.749  0.00  0.00     0.085 A 
ATOM      9  C11 <0> d          -1.689   0.046   4.022  0.00  0.00     0.074 A 
ATOM     10  C12 <0> d          -1.267  -0.515   2.728  0.00  0.00     0.259 A 
ATOM     11  O2  <0> d          -1.958  -1.221   2.018  0.00  0.00    -0.267 OA
ATOM     12  C20 <0> d           1.673   0.092   4.154  0.00  0.00     0.089 C 
ATOM     13  N2  <0> d           2.587  -0.383   4.633  0.00  0.00    -0.195 NA
ATOM     14  H11 <0> d           0.055   2.030   6.137  0.00  0.00     0.084 H 
ATOM     15  H12 <0> d          -2.046   1.854   7.409  0.00  0.00     0.083 H 
ATOM     16  H13 <0> d          -3.920   0.531   6.530  0.00  0.00     0.087 H 
ENDROOT
BRANCH   1  17
ATOM     17  C3  <0> d           0.742  -0.511   1.242  0.00  0.00     0.036 C 
ATOM     18  H1  <0> d           1.735  -0.063   1.280  0.00  0.00     0.076 H 
BRANCH  17  19
ATOM     19  C2  <0> d           0.002  -0.004   0.002  0.00  0.00    -0.047 C 
ATOM     20  H6  <0> d          -1.020  -0.381   0.010  0.00  0.00     0.035 H 
ATOM     21  H7  <0> d           0.512  -0.356  -0.895  0.00  0.00     0.035 H 
BRANCH  19  22
ATOM     22  C1  <0> d          -0.019   1.526   0.010  0.00  0.00    -0.075 C 
ATOM     23  H3  <0> d           1.004   1.903   0.003  0.00  0.00     0.027 H 
ATOM     24  H4  <0> d          -0.546   1.887  -0.873  0.00  0.00     0.027 H 
ATOM     25  H5  <0> d          -0.529   1.877   0.907  0.00  0.00     0.027 H 
ENDBRANCH  19  22
ENDBRANCH  17  19
BRANCH  17  26
ATOM     26  C4  <0> d           0.872  -2.034   1.171  0.00  0.00     0.036 C 
ATOM     27  H8  <0> d           1.505  -2.306   0.326  0.00  0.00     0.077 H 
ATOM     28  H9  <0> d           1.319  -2.404   2.094  0.00  0.00     0.077 H 
BRANCH  26  29
ATOM     29  O1  <0> d          -0.423  -2.615   1.003  0.00  0.00    -0.399 OA
ATOM     30  H10 <0> d          -0.416  -3.580   0.950  0.00  0.00     0.209 HD
ENDBRANCH  26  29
ENDBRANCH  17  26
ENDBRANCH   1  17
BRANCH   8  31
ATOM     31  O3  <0> d          -3.919  -0.782   4.265  0.00  0.00    -0.346 OA
BRANCH  31  32
ATOM     32  C13 <0> d          -5.104  -0.835   5.062  0.00  0.00     0.050 C 
ATOM     33  H14 <0> d          -4.869  -1.268   6.035  0.00  0.00     0.082 H 
ATOM     34  H15 <0> d          -5.496   0.173   5.199  0.00  0.00     0.082 H 
BRANCH  32  35
ATOM     35  C14 <0> d          -6.138  -1.685   4.370  0.00  0.00    -0.034 A 
ATOM     36  C19 <0> d          -6.190  -3.045   4.615  0.00  0.00    -0.075 A 
ATOM     37  C18 <0> d          -7.141  -3.824   3.983  0.00  0.00    -0.082 A 
ATOM     38  H20 <0> d          -5.491  -3.497   5.302  0.00  0.00     0.084 H 
ATOM     39  C17 <0> d          -8.034  -3.246   3.100  0.00  0.00    -0.083 A 
ATOM     40  H19 <0> d          -7.185  -4.886   4.177  0.00  0.00     0.083 H 
ATOM     41  C16 <0> d          -7.978  -1.887   2.851  0.00  0.00    -0.082 A 
ATOM     42  H18 <0> d          -8.775  -3.855   2.604  0.00  0.00     0.083 H 
ATOM     43  C15 <0> d          -7.029  -1.107   3.486  0.00  0.00    -0.075 A 
ATOM     44  H17 <0> d          -8.675  -1.435   2.161  0.00  0.00     0.083 H 
ATOM     45  H16 <0> d          -6.986  -0.045   3.292  0.00  0.00     0.084 H 
ENDBRANCH  32  35
ENDBRANCH  31  32
ENDBRANCH   8  31
TORSDOF 8
