REMARK  6 active torsions:
REMARK  status: ('A' for Active; 'I' for Inactive)
REMARK    1  A    between atoms: C1_1  and  C2_2 
REMARK    2  A    between atoms: C2_2  and  C3_3 
REMARK    3  A    between atoms: C2_2  and  C4_4 
REMARK       I    between atoms: N1_7  and  C13_17 
REMARK    4  A    between atoms: N2_12  and  C9_13 
REMARK    5  A    between atoms: C9_13  and  C10_14 
REMARK    6  A    between atoms: C13_17  and  C14_19 
ROOT
ATOM      1  C4  <0> d          -3.727  -0.852   2.048  0.00  0.00     0.033 C 
ATOM      2  H1  <0> d          -4.067  -1.207   1.075  0.00  0.00     0.075 H 
ATOM      3  C5  <0> d          -3.404   0.643   1.964  0.00  0.00     0.017 C 
ATOM      4  N1  <0> d          -2.496   1.012   3.048  0.00  0.00    -0.344 N 
ATOM      5  C6  <0> d          -2.875   0.921   4.456  0.00  0.00     0.006 C 
ATOM      6  C7  <0> d          -3.140  -0.544   4.822  0.00  0.00     0.024 C 
ATOM      7  C8  <0> d          -4.528  -0.916   4.350  0.00  0.00     0.221 C 
ATOM      8  O1  <0> d          -5.413  -1.090   5.161  0.00  0.00    -0.273 OA
ATOM      9  N2  <0> d          -4.788  -1.056   3.044  0.00  0.00    -0.345 N 
ATOM     10  C13 <0> d          -1.262   1.455   2.736  0.00  0.00     0.270 C 
ATOM     11  O2  <0> d          -0.961   1.650   1.573  0.00  0.00    -0.266 OA
ATOM     12  H10 <0> d          -2.931   0.859   1.006  0.00  0.00     0.067 H 
ATOM     13  H11 <0> d          -4.325   1.219   2.051  0.00  0.00     0.067 H 
ATOM     14  H12 <0> d          -2.067   1.309   5.076  0.00  0.00     0.065 H 
ATOM     15  H13 <0> d          -3.778   1.507   4.628  0.00  0.00     0.065 H 
ATOM     16  H14 <0> d          -2.405  -1.182   4.332  0.00  0.00     0.049 H 
ATOM     17  H15 <0> d          -3.075  -0.669   5.902  0.00  0.00     0.049 H 
ENDROOT
BRANCH   1  18
ATOM     18  C2  <0> d          -2.475  -1.625   2.466  0.00  0.00    -0.040 C 
ATOM     19  H6  <0> d          -1.862  -1.000   3.115  0.00  0.00     0.042 H 
BRANCH  18  20
ATOM     20  C1  <0> d          -2.886  -2.892   3.220  0.00  0.00    -0.071 C 
ATOM     21  H3  <0> d          -1.994  -3.443   3.518  0.00  0.00     0.028 H 
ATOM     22  H4  <0> d          -3.457  -2.618   4.106  0.00  0.00     0.028 H 
ATOM     23  H5  <0> d          -3.499  -3.518   2.571  0.00  0.00     0.028 H 
ENDBRANCH  18  20
BRANCH  18  24
ATOM     24  C3  <0> d          -1.673  -2.009   1.221  0.00  0.00    -0.071 C 
ATOM     25  H7  <0> d          -2.290  -2.626   0.567  0.00  0.00     0.028 H 
ATOM     26  H8  <0> d          -1.371  -1.106   0.691  0.00  0.00     0.028 H 
ATOM     27  H9  <0> d          -0.787  -2.570   1.519  0.00  0.00     0.028 H 
ENDBRANCH  18  24
ENDBRANCH   1  18
BRANCH   9  28
ATOM     28  C9  <0> d          -6.139  -1.410   2.604  0.00  0.00     0.002 C 
ATOM     29  H16 <0> d          -6.867  -1.018   3.314  0.00  0.00     0.065 H 
ATOM     30  H17 <0> d          -6.325  -0.980   1.619  0.00  0.00     0.065 H 
BRANCH  28  31
ATOM     31  C10 <0> d          -6.268  -2.932   2.527  0.00  0.00    -0.038 A 
ATOM     32  C12 <0> d          -7.647  -3.509   2.197  0.00  0.00    -0.060 A 
ATOM     33  C11 <0> d          -6.530  -3.551   1.153  0.00  0.00    -0.060 A 
ATOM     34  H21 <0> d          -7.926  -4.448   2.674  0.00  0.00     0.033 H 
ATOM     35  H22 <0> d          -8.461  -2.803   2.035  0.00  0.00     0.033 H 
ATOM     36  H19 <0> d          -6.609  -2.874   0.303  0.00  0.00     0.033 H 
ATOM     37  H20 <0> d          -6.074  -4.519   0.942  0.00  0.00     0.033 H 
ATOM     38  H18 <0> d          -5.642  -3.493   3.221  0.00  0.00     0.042 H 
ENDBRANCH  28  31
ENDBRANCH   9  28
BRANCH  10  39
ATOM     39  C14 <0> d          -0.281   1.700   3.799  0.00  0.00     0.100 A 
ATOM     40  N3  <0> d           0.429   0.743   4.488  0.00  0.00    -0.361 N 
ATOM     41  C17 <0> d           1.234   1.363   5.385  0.00  0.00    -0.022 A 
ATOM     42  H2  <0> d           0.366  -0.215   4.352  0.00  0.00     0.165 HD
ATOM     43  C16 <0> d           1.046   2.701   5.291  0.00  0.00    -0.066 A 
ATOM     44  H25 <0> d           1.911   0.871   6.067  0.00  0.00     0.111 H 
ATOM     45  C15 <0> d           0.093   2.932   4.294  0.00  0.00    -0.050 A 
ATOM     46  H24 <0> d           1.544   3.456   5.881  0.00  0.00     0.085 H 
ATOM     47  H23 <0> d          -0.280   3.893   3.973  0.00  0.00     0.087 H 
ENDBRANCH  10  39
TORSDOF 6
