REMARK  8 active torsions:
REMARK  status: ('A' for Active; 'I' for Inactive)
REMARK    1  A    between atoms: C1_1  and  O1_2 
REMARK    2  A    between atoms: O1_2  and  C2_3 
REMARK    3  A    between atoms: C2_3  and  C3_5 
REMARK    4  A    between atoms: C3_5  and  C4_6 
REMARK    5  A    between atoms: C4_6  and  N1_7 
REMARK    6  A    between atoms: N1_7  and  C5_8 
REMARK       I    between atoms: N1_7  and  C10_14 
REMARK    7  A    between atoms: C5_8  and  C6_9 
REMARK    8  A    between atoms: C10_14  and  C11_16 
ROOT
ATOM      1  N1  <0> d          -3.292  -4.042   0.013  0.00  0.00    -0.341 N 
ATOM      2  C10 <0> d          -3.079  -4.848  -1.047  0.00  0.00     0.257 C 
ATOM      3  O4  <0> d          -2.853  -6.030  -0.875  0.00  0.00    -0.267 OA
ENDROOT
BRANCH   1   4
ATOM      4  C4  <0> d          -3.604  -2.626  -0.195  0.00  0.00     0.007 C 
ATOM      5  H6  <0> d          -4.466  -2.351   0.413  0.00  0.00     0.065 H 
ATOM      6  H7  <0> d          -3.833  -2.455  -1.247  0.00  0.00     0.065 H 
BRANCH   4   7
ATOM      7  C3  <0> d          -2.401  -1.772   0.211  0.00  0.00     0.031 C 
ATOM      8  H4  <0> d          -1.539  -2.047  -0.397  0.00  0.00     0.050 H 
ATOM      9  H5  <0> d          -2.173  -1.944   1.263  0.00  0.00     0.050 H 
BRANCH   7  10
ATOM     10  C2  <0> d          -2.723  -0.316  -0.003  0.00  0.00     0.259 C 
ATOM     11  O2  <0> d          -3.804   0.007  -0.436  0.00  0.00    -0.265 OA
BRANCH  10  12
ATOM     12  O1  <0> d          -1.809   0.623   0.287  0.00  0.00    -0.326 OA
BRANCH  12  13
ATOM     13  C1  <0> d          -2.182   1.984   0.060  0.00  0.00     0.013 C 
ATOM     14  H1  <0> d          -1.355   2.638   0.335  0.00  0.00     0.067 H 
ATOM     15  H2  <0> d          -2.421   2.124  -0.994  0.00  0.00     0.067 H 
ATOM     16  H3  <0> d          -3.055   2.227   0.666  0.00  0.00     0.067 H 
ENDBRANCH  12  13
ENDBRANCH  10  12
ENDBRANCH   7  10
ENDBRANCH   4   7
ENDBRANCH   1   4
BRANCH   1  17
ATOM     17  C5  <0> d          -3.209  -4.582   1.372  0.00  0.00     0.042 C 
ATOM     18  H8  <0> d          -2.444  -5.357   1.409  0.00  0.00     0.074 H 
ATOM     19  H9  <0> d          -2.950  -3.782   2.066  0.00  0.00     0.074 H 
BRANCH  17  20
ATOM     20  C6  <0> d          -4.541  -5.171   1.760  0.00  0.00     0.070 A 
ATOM     21  O3  <0> d          -5.512  -4.539   2.440  0.00  0.00    -0.325 OA
ATOM     22  C9  <0> d          -6.557  -5.367   2.602  0.00  0.00     0.019 A 
ATOM     23  C8  <0> d          -6.257  -6.548   2.031  0.00  0.00    -0.059 A 
ATOM     24  H12 <0> d          -7.480  -5.127   3.109  0.00  0.00     0.123 H 
ATOM     25  C7  <0> d          -4.957  -6.421   1.488  0.00  0.00    -0.051 A 
ATOM     26  H11 <0> d          -6.887  -7.423   1.994  0.00  0.00     0.086 H 
ATOM     27  H10 <0> d          -4.405  -7.182   0.956  0.00  0.00     0.087 H 
ENDBRANCH  17  20
ENDBRANCH   1  17
BRANCH   2  28
ATOM     28  C11 <0> d          -3.120  -4.295  -2.414  0.00  0.00     0.074 A 
ATOM     29  C16 <0> d          -3.450  -5.119  -3.495  0.00  0.00     0.173 A 
ATOM     30  C15 <0> d          -3.492  -4.592  -4.774  0.00  0.00     0.194 A 
ATOM     31  F1  <0> d          -3.733  -6.424  -3.291  0.00  0.00    -0.202 F 
ATOM     32  C14 <0> d          -3.196  -3.253  -4.983  0.00  0.00     0.158 A 
ATOM     33  F2  <0> d          -3.816  -5.383  -5.820  0.00  0.00    -0.200 F 
ATOM     34  C13 <0> d          -2.863  -2.435  -3.914  0.00  0.00    -0.041 A 
ATOM     35  F3  <0> d          -3.232  -2.744  -6.234  0.00  0.00    -0.203 F 
ATOM     36  C12 <0> d          -2.824  -2.947  -2.635  0.00  0.00    -0.062 A 
ATOM     37  H14 <0> d          -2.634  -1.394  -4.084  0.00  0.00     0.088 H 
ATOM     38  H13 <0> d          -2.564  -2.308  -1.805  0.00  0.00     0.085 H 
ENDBRANCH   2  28
TORSDOF 8
