REMARK  12 active torsions:
REMARK  status: ('A' for Active; 'I' for Inactive)
REMARK    1  A    between atoms: C1_1  and  C2_2 
REMARK    2  A    between atoms: C2_2  and  N1_3 
REMARK    3  A    between atoms: N1_3  and  C3_4 
REMARK       I    between atoms: N1_3  and  C8_12 
REMARK    4  A    between atoms: C3_4  and  C4_5 
REMARK    5  A    between atoms: C4_5  and  C5_7 
REMARK    6  A    between atoms: C4_5  and  C6_8 
REMARK    7  A    between atoms: C6_8  and  O2_10 
REMARK    8  A    between atoms: O2_10  and  C7_11 
REMARK    9  A    between atoms: C8_12  and  C9_14 
REMARK   10  A    between atoms: C9_14  and  C10_15 
REMARK   11  A    between atoms: C9_14  and  C11_16 
REMARK   12  A    between atoms: C9_14  and  C12_17 
ROOT
ATOM      1  N1  <0> d          -1.302  -0.817   0.333  0.00  0.00    -0.351 N 
ATOM      2  C8  <0> d          -2.062  -0.478   1.394  0.00  0.00     0.227 C 
ATOM      3  O3  <0> d          -1.538  -0.108   2.422  0.00  0.00    -0.273 OA
ENDROOT
BRANCH   1   4
ATOM      4  C2  <0> d           0.147  -0.604   0.373  0.00  0.00    -0.006 C 
ATOM      5  H5  <0> d           0.634  -1.293  -0.317  0.00  0.00     0.063 H 
ATOM      6  H6  <0> d           0.513  -0.784   1.384  0.00  0.00     0.063 H 
BRANCH   4   7
ATOM      7  C1  <0> d           0.463   0.836  -0.035  0.00  0.00    -0.061 C 
ATOM      8  H2  <0> d           1.531   1.020   0.080  0.00  0.00     0.029 H 
ATOM      9  H3  <0> d           0.177   0.990  -1.076  0.00  0.00     0.029 H 
ATOM     10  H4  <0> d          -0.095   1.524   0.600  0.00  0.00     0.029 H 
ENDBRANCH   4   7
ENDBRANCH   1   4
BRANCH   1  11
ATOM     11  C3  <0> d          -1.925  -1.397  -0.859  0.00  0.00     0.009 C 
ATOM     12  H7  <0> d          -2.974  -1.106  -0.899  0.00  0.00     0.065 H 
ATOM     13  H8  <0> d          -1.413  -1.033  -1.750  0.00  0.00     0.065 H 
BRANCH  11  14
ATOM     14  C4  <0> d          -1.820  -2.922  -0.798  0.00  0.00     0.042 C 
ATOM     15  H1  <0> d          -2.286  -3.282   0.119  0.00  0.00     0.057 H 
BRANCH  14  16
ATOM     16  C5  <0> d          -0.347  -3.333  -0.818  0.00  0.00    -0.063 C 
ATOM     17  H9  <0> d           0.163  -2.900   0.043  0.00  0.00     0.028 H 
ATOM     18  H10 <0> d          -0.272  -4.420  -0.774  0.00  0.00     0.028 H 
ATOM     19  H11 <0> d           0.119  -2.974  -1.735  0.00  0.00     0.028 H 
ENDBRANCH  14  16
BRANCH  14  20
ATOM     20  C6  <0> d          -2.525  -3.522  -1.988  0.00  0.00     0.263 C 
ATOM     21  O1  <0> d          -3.056  -2.803  -2.801  0.00  0.00    -0.265 OA
BRANCH  20  22
ATOM     22  O2  <0> d          -2.562  -4.854  -2.144  0.00  0.00    -0.326 OA
BRANCH  22  23
ATOM     23  C7  <0> d          -3.248  -5.354  -3.294  0.00  0.00     0.013 C 
ATOM     24  H12 <0> d          -2.774  -4.966  -4.196  0.00  0.00     0.067 H 
ATOM     25  H13 <0> d          -3.203  -6.443  -3.299  0.00  0.00     0.067 H 
ATOM     26  H14 <0> d          -4.289  -5.033  -3.264  0.00  0.00     0.067 H 
ENDBRANCH  22  23
ENDBRANCH  20  22
ENDBRANCH  14  20
ENDBRANCH  11  14
ENDBRANCH   1  11
BRANCH   2  27
ATOM     27  C9  <0> d          -3.564  -0.560   1.301  0.00  0.00     0.030 C 
BRANCH  27  28
ATOM     28  C10 <0> d          -4.179  -0.217   2.659  0.00  0.00    -0.061 C 
ATOM     29  H15 <0> d          -3.887   0.793   2.946  0.00  0.00     0.029 H 
ATOM     30  H16 <0> d          -5.265  -0.276   2.592  0.00  0.00     0.029 H 
ATOM     31  H17 <0> d          -3.822  -0.924   3.408  0.00  0.00     0.029 H 
ENDBRANCH  27  28
BRANCH  27  32
ATOM     32  C11 <0> d          -4.065   0.433   0.249  0.00  0.00    -0.061 C 
ATOM     33  H18 <0> d          -3.695   0.139  -0.733  0.00  0.00     0.029 H 
ATOM     34  H19 <0> d          -5.155   0.435   0.242  0.00  0.00     0.029 H 
ATOM     35  H20 <0> d          -3.701   1.432   0.491  0.00  0.00     0.029 H 
ENDBRANCH  27  32
BRANCH  27  36
ATOM     36  C12 <0> d          -3.974  -1.978   0.899  0.00  0.00    -0.061 C 
ATOM     37  H21 <0> d          -3.625  -2.684   1.652  0.00  0.00     0.029 H 
ATOM     38  H22 <0> d          -5.060  -2.034   0.823  0.00  0.00     0.029 H 
ATOM     39  H23 <0> d          -3.529  -2.225  -0.065  0.00  0.00     0.029 H 
ENDBRANCH  27  36
ENDBRANCH   2  27
TORSDOF 12
