REMARK  11 active torsions:
REMARK  status: ('A' for Active; 'I' for Inactive)
REMARK    1  A    between atoms: C1_1  and  C2_2 
REMARK    2  A    between atoms: C2_2  and  C3_4 
REMARK    3  A    between atoms: C2_2  and  C12_15 
REMARK    4  A    between atoms: C3_4  and  N1_5 
REMARK    5  A    between atoms: N1_5  and  C4_6 
REMARK       I    between atoms: N1_5  and  C7_9 
REMARK    6  A    between atoms: C7_9  and  C8_11 
REMARK    7  A    between atoms: C8_11  and  C9_12 
REMARK    8  A    between atoms: C8_11  and  C10_13 
REMARK    9  A    between atoms: C8_11  and  C11_14 
REMARK   10  A    between atoms: C12_15  and  O3_17 
REMARK   11  A    between atoms: O3_17  and  C13_18 
ROOT
ATOM      1  N1  <0> d          -0.999   0.041  -2.318  0.00  0.00    -0.346 N 
ATOM      2  C7  <0> d          -1.340  -1.159  -2.830  0.00  0.00     0.227 C 
ATOM      3  O1  <0> d          -1.806  -1.231  -3.947  0.00  0.00    -0.273 OA
ENDROOT
BRANCH   1   4
ATOM      4  C3  <0> d          -0.560   0.144  -0.924  0.00  0.00     0.010 C 
ATOM      5  H5  <0> d           0.194   0.927  -0.837  0.00  0.00     0.065 H 
ATOM      6  H6  <0> d          -0.133  -0.807  -0.606  0.00  0.00     0.065 H 
BRANCH   4   7
ATOM      7  C2  <0> d          -1.758   0.488  -0.036  0.00  0.00     0.042 C 
ATOM      8  H1  <0> d          -2.517  -0.287  -0.135  0.00  0.00     0.057 H 
BRANCH   7   9
ATOM      9  C1  <0> d          -2.343   1.834  -0.470  0.00  0.00    -0.063 C 
ATOM     10  H2  <0> d          -1.584   2.609  -0.371  0.00  0.00     0.028 H 
ATOM     11  H3  <0> d          -2.667   1.772  -1.509  0.00  0.00     0.028 H 
ATOM     12  H4  <0> d          -3.197   2.079   0.163  0.00  0.00     0.028 H 
ENDBRANCH   7   9
BRANCH   7  13
ATOM     13  C12 <0> d          -1.310   0.575   1.400  0.00  0.00     0.263 C 
ATOM     14  O2  <0> d          -0.152   0.381   1.685  0.00  0.00    -0.265 OA
BRANCH  13  15
ATOM     15  O3  <0> d          -2.198   0.867   2.363  0.00  0.00    -0.326 OA
BRANCH  15  16
ATOM     16  C13 <0> d          -1.704   0.932   3.703  0.00  0.00     0.013 C 
ATOM     17  H21 <0> d          -1.278  -0.032   3.980  0.00  0.00     0.067 H 
ATOM     18  H22 <0> d          -0.936   1.702   3.770  0.00  0.00     0.067 H 
ATOM     19  H23 <0> d          -2.523   1.176   4.380  0.00  0.00     0.067 H 
ENDBRANCH  15  16
ENDBRANCH  13  15
ENDBRANCH   7  13
ENDBRANCH   4   7
ENDBRANCH   1   4
BRANCH   1  20
ATOM     20  C4  <0> d          -1.067   1.241  -3.155  0.00  0.00     0.015 A 
ATOM     21  C6  <0> d          -0.344   1.203  -4.503  0.00  0.00    -0.044 A 
ATOM     22  C5  <0> d          -1.872   1.152  -4.453  0.00  0.00    -0.044 A 
ATOM     23  H10 <0> d           0.117   2.127  -4.853  0.00  0.00     0.036 H 
ATOM     24  H11 <0> d           0.182   0.286  -4.767  0.00  0.00     0.036 H 
ATOM     25  H8  <0> d          -2.351   0.200  -4.684  0.00  0.00     0.036 H 
ATOM     26  H9  <0> d          -2.416   2.041  -4.770  0.00  0.00     0.036 H 
ATOM     27  H7  <0> d          -1.081   2.189  -2.618  0.00  0.00     0.072 H 
ENDBRANCH   1  20
BRANCH   2  28
ATOM     28  C8  <0> d          -1.142  -2.410  -2.014  0.00  0.00     0.030 C 
BRANCH  28  29
ATOM     29  C9  <0> d          -1.681  -3.614  -2.788  0.00  0.00    -0.061 C 
ATOM     30  H12 <0> d          -1.145  -3.708  -3.733  0.00  0.00     0.029 H 
ATOM     31  H13 <0> d          -1.538  -4.519  -2.198  0.00  0.00     0.029 H 
ATOM     32  H14 <0> d          -2.743  -3.474  -2.986  0.00  0.00     0.029 H 
ENDBRANCH  28  29
BRANCH  28  33
ATOM     33  C10 <0> d           0.350  -2.607  -1.736  0.00  0.00    -0.061 C 
ATOM     34  H15 <0> d           0.750  -1.717  -1.252  0.00  0.00     0.029 H 
ATOM     35  H16 <0> d           0.487  -3.469  -1.082  0.00  0.00     0.029 H 
ATOM     36  H17 <0> d           0.875  -2.777  -2.676  0.00  0.00     0.029 H 
ENDBRANCH  28  33
BRANCH  28  37
ATOM     37  C11 <0> d          -1.894  -2.278  -0.688  0.00  0.00    -0.061 C 
ATOM     38  H18 <0> d          -2.890  -1.875  -0.873  0.00  0.00     0.029 H 
ATOM     39  H19 <0> d          -1.981  -3.259  -0.220  0.00  0.00     0.029 H 
ATOM     40  H20 <0> d          -1.348  -1.607  -0.025  0.00  0.00     0.029 H 
ENDBRANCH  28  37
ENDBRANCH   2  28
TORSDOF 11
