REMARK  14 active torsions:
REMARK  status: ('A' for Active; 'I' for Inactive)
REMARK    1  A    between atoms: C1_1  and  C2_2 
REMARK    2  A    between atoms: C2_2  and  C3_4 
REMARK    3  A    between atoms: C2_2  and  C12_17 
REMARK    4  A    between atoms: C3_4  and  N1_5 
REMARK    5  A    between atoms: N1_5  and  C4_6 
REMARK       I    between atoms: N1_5  and  C7_11 
REMARK    6  A    between atoms: C4_6  and  C5_7 
REMARK    7  A    between atoms: C5_7  and  C6_9 
REMARK    8  A    between atoms: C5_7  and  O1_10 
REMARK    9  A    between atoms: C7_11  and  C8_13 
REMARK   10  A    between atoms: C8_13  and  C9_14 
REMARK   11  A    between atoms: C8_13  and  C10_15 
REMARK   12  A    between atoms: C8_13  and  C11_16 
REMARK   13  A    between atoms: C12_17  and  O4_19 
REMARK   14  A    between atoms: O4_19  and  C13_20 
ROOT
ATOM      1  N1  <0> d          -2.045   0.048  -1.684  0.00  0.00    -0.348 N 
ATOM      2  C7  <0> d          -2.782   1.176  -1.667  0.00  0.00     0.227 C 
ATOM      3  O2  <0> d          -3.635   1.357  -2.509  0.00  0.00    -0.273 OA
ENDROOT
BRANCH   1   4
ATOM      4  C3  <0> d          -1.059  -0.200  -0.630  0.00  0.00     0.009 C 
ATOM      5  H6  <0> d          -1.311  -1.122  -0.106  0.00  0.00     0.065 H 
ATOM      6  H7  <0> d          -1.064   0.631   0.075  0.00  0.00     0.065 H 
BRANCH   4   7
ATOM      7  C2  <0> d           0.332  -0.331  -1.254  0.00  0.00     0.042 C 
ATOM      8  H1  <0> d           0.355  -1.201  -1.910  0.00  0.00     0.057 H 
BRANCH   7   9
ATOM      9  C1  <0> d           0.649   0.928  -2.063  0.00  0.00    -0.063 C 
ATOM     10  H3  <0> d           1.568   0.774  -2.629  0.00  0.00     0.028 H 
ATOM     11  H4  <0> d          -0.171   1.133  -2.752  0.00  0.00     0.028 H 
ATOM     12  H5  <0> d           0.775   1.773  -1.387  0.00  0.00     0.028 H 
ENDBRANCH   7   9
BRANCH   7  13
ATOM     13  C12 <0> d           1.358  -0.498  -0.162  0.00  0.00     0.263 C 
ATOM     14  O3  <0> d           1.012  -0.510   0.995  0.00  0.00    -0.265 OA
BRANCH  13  15
ATOM     15  O4  <0> d           2.656  -0.632  -0.477  0.00  0.00    -0.326 OA
BRANCH  15  16
ATOM     16  C13 <0> d           3.574  -0.786   0.608  0.00  0.00     0.013 C 
ATOM     17  H23 <0> d           3.518   0.087   1.257  0.00  0.00     0.067 H 
ATOM     18  H24 <0> d           3.316  -1.679   1.178  0.00  0.00     0.067 H 
ATOM     19  H25 <0> d           4.586  -0.885   0.217  0.00  0.00     0.067 H 
ENDBRANCH  15  16
ENDBRANCH  13  15
ENDBRANCH   7  13
ENDBRANCH   4   7
ENDBRANCH   1   4
BRANCH   1  20
ATOM     20  C4  <0> d          -2.231  -0.931  -2.758  0.00  0.00     0.021 C 
ATOM     21  H8  <0> d          -2.635  -0.432  -3.639  0.00  0.00     0.068 H 
ATOM     22  H9  <0> d          -1.272  -1.386  -3.006  0.00  0.00     0.068 H 
BRANCH  20  23
ATOM     23  C5  <0> d          -3.206  -2.016  -2.296  0.00  0.00     0.047 C 
ATOM     24  H2  <0> d          -2.844  -2.459  -1.368  0.00  0.00     0.084 H 
BRANCH  23  25
ATOM     25  C6  <0> d          -3.310  -3.100  -3.371  0.00  0.00    -0.051 C 
ATOM     26  H10 <0> d          -2.327  -3.542  -3.538  0.00  0.00     0.030 H 
ATOM     27  H11 <0> d          -4.004  -3.873  -3.041  0.00  0.00     0.030 H 
ATOM     28  H12 <0> d          -3.672  -2.658  -4.299  0.00  0.00     0.030 H 
ENDBRANCH  23  25
BRANCH  23  29
ATOM     29  O1  <0> d          -4.494  -1.438  -2.077  0.00  0.00    -0.394 OA
ATOM     30  H13 <0> d          -4.912  -1.093  -2.878  0.00  0.00     0.210 HD
ENDBRANCH  23  29
ENDBRANCH  20  23
ENDBRANCH   1  20
BRANCH   2  31
ATOM     31  C8  <0> d          -2.545   2.214  -0.600  0.00  0.00     0.030 C 
BRANCH  31  32
ATOM     32  C9  <0> d          -3.464   3.413  -0.842  0.00  0.00    -0.061 C 
ATOM     33  H14 <0> d          -4.503   3.087  -0.807  0.00  0.00     0.029 H 
ATOM     34  H15 <0> d          -3.293   4.164  -0.070  0.00  0.00     0.029 H 
ATOM     35  H16 <0> d          -3.250   3.843  -1.820  0.00  0.00     0.029 H 
ENDBRANCH  31  32
BRANCH  31  36
ATOM     36  C10 <0> d          -2.846   1.610   0.774  0.00  0.00    -0.061 C 
ATOM     37  H17 <0> d          -2.149   0.796   0.973  0.00  0.00     0.029 H 
ATOM     38  H18 <0> d          -2.736   2.378   1.540  0.00  0.00     0.029 H 
ATOM     39  H19 <0> d          -3.866   1.227   0.787  0.00  0.00     0.029 H 
ENDBRANCH  31  36
BRANCH  31  40
ATOM     40  C11 <0> d          -1.086   2.671  -0.647  0.00  0.00    -0.061 C 
ATOM     41  H20 <0> d          -0.845   3.012  -1.654  0.00  0.00     0.029 H 
ATOM     42  H21 <0> d          -0.938   3.488   0.058  0.00  0.00     0.029 H 
ATOM     43  H22 <0> d          -0.435   1.838  -0.381  0.00  0.00     0.029 H 
ENDBRANCH  31  40
ENDBRANCH   2  31
TORSDOF 14
