REMARK  8 active torsions:
REMARK  status: ('A' for Active; 'I' for Inactive)
REMARK    1  A    between atoms: C1_1  and  O1_2 
REMARK    2  A    between atoms: O1_2  and  C2_3 
REMARK    3  A    between atoms: C2_3  and  C3_5 
REMARK    4  A    between atoms: C3_5  and  C4_6 
REMARK    5  A    between atoms: C4_6  and  N1_7 
REMARK    6  A    between atoms: N1_7  and  C5_8 
REMARK       I    between atoms: N1_7  and  C8_11 
REMARK    7  A    between atoms: C8_11  and  C9_13 
REMARK    8  A    between atoms: C9_13  and  C10_14 
ROOT
ATOM      1  N1  <0> d           1.440  -3.979  -2.474  0.00  0.00    -0.347 N 
ATOM      2  C8  <0> d           2.468  -4.655  -1.925  0.00  0.00     0.224 C 
ATOM      3  O3  <0> d           3.319  -4.060  -1.298  0.00  0.00    -0.273 OA
ENDROOT
BRANCH   1   4
ATOM      4  C4  <0> d           1.407  -2.515  -2.410  0.00  0.00     0.006 C 
ATOM      5  H6  <0> d           0.881  -2.125  -3.281  0.00  0.00     0.065 H 
ATOM      6  H7  <0> d           2.426  -2.130  -2.398  0.00  0.00     0.065 H 
BRANCH   4   7
ATOM      7  C3  <0> d           0.681  -2.077  -1.136  0.00  0.00     0.031 C 
ATOM      8  H4  <0> d           1.207  -2.468  -0.265  0.00  0.00     0.050 H 
ATOM      9  H5  <0> d          -0.338  -2.463  -1.148  0.00  0.00     0.050 H 
BRANCH   7  10
ATOM     10  C2  <0> d           0.647  -0.572  -1.070  0.00  0.00     0.259 C 
ATOM     11  O2  <0> d           1.153   0.083  -1.950  0.00  0.00    -0.265 OA
BRANCH  10  12
ATOM     12  O1  <0> d           0.056   0.041  -0.032  0.00  0.00    -0.326 OA
BRANCH  12  13
ATOM     13  C1  <0> d           0.062   1.470  -0.034  0.00  0.00     0.013 C 
ATOM     14  H1  <0> d           1.091   1.829  -0.039  0.00  0.00     0.067 H 
ATOM     15  H2  <0> d          -0.455   1.834  -0.922  0.00  0.00     0.067 H 
ATOM     16  H3  <0> d          -0.447   1.836   0.858  0.00  0.00     0.067 H 
ENDBRANCH  12  13
ENDBRANCH  10  12
ENDBRANCH   7  10
ENDBRANCH   4   7
ENDBRANCH   1   4
BRANCH   1  17
ATOM     17  C5  <0> d           0.354  -4.707  -3.136  0.00  0.00     0.015 A 
ATOM     18  C7  <0> d          -1.034  -4.639  -2.498  0.00  0.00    -0.044 A 
ATOM     19  C6  <0> d          -0.751  -3.881  -3.796  0.00  0.00    -0.044 A 
ATOM     20  H11 <0> d          -1.661  -5.528  -2.561  0.00  0.00     0.036 H 
ATOM     21  H12 <0> d          -1.141  -4.052  -1.585  0.00  0.00     0.036 H 
ATOM     22  H9  <0> d          -0.671  -2.795  -3.738  0.00  0.00     0.036 H 
ATOM     23  H10 <0> d          -1.192  -4.271  -4.714  0.00  0.00     0.036 H 
ATOM     24  H8  <0> d           0.641  -5.641  -3.619  0.00  0.00     0.072 H 
ENDBRANCH   1  17
BRANCH   2  25
ATOM     25  C9  <0> d           2.561  -6.150  -2.090  0.00  0.00     0.033 C 
ATOM     26  H13 <0> d           1.638  -6.612  -1.738  0.00  0.00     0.054 H 
ATOM     27  H14 <0> d           2.710  -6.391  -3.142  0.00  0.00     0.054 H 
BRANCH  25  28
ATOM     28  C10 <0> d           3.722  -6.673  -1.285  0.00  0.00    -0.049 A 
ATOM     29  C15 <0> d           3.534  -7.061   0.028  0.00  0.00    -0.075 A 
ATOM     30  C14 <0> d           4.598  -7.547   0.765  0.00  0.00    -0.061 A 
ATOM     31  H18 <0> d           2.554  -6.990   0.477  0.00  0.00     0.084 H 
ATOM     32  C13 <0> d           5.854  -7.633   0.192  0.00  0.00     0.034 A 
ATOM     33  H17 <0> d           4.450  -7.854   1.790  0.00  0.00     0.086 H 
ATOM     34  C12 <0> d           6.043  -7.239  -1.121  0.00  0.00    -0.061 A 
ATOM     35 Cl1  <0> d           7.192  -8.236   1.118  0.00  0.00    -0.084 Cl
ATOM     36  C11 <0> d           4.977  -6.759  -1.859  0.00  0.00    -0.075 A 
ATOM     37  H16 <0> d           7.023  -7.306  -1.569  0.00  0.00     0.086 H 
ATOM     38  H15 <0> d           5.125  -6.452  -2.884  0.00  0.00     0.084 H 
ENDBRANCH  25  28
ENDBRANCH   2  25
TORSDOF 8
