REMARK  12 active torsions:
REMARK  status: ('A' for Active; 'I' for Inactive)
REMARK    1  A    between atoms: C1_1  and  C2_2 
REMARK    2  A    between atoms: C2_2  and  C3_4 
REMARK    3  A    between atoms: C2_2  and  C16_19 
REMARK    4  A    between atoms: C3_4  and  N1_5 
REMARK    5  A    between atoms: N1_5  and  C4_6 
REMARK       I    between atoms: N1_5  and  C11_13 
REMARK    6  A    between atoms: C4_6  and  C5_7 
REMARK    7  A    between atoms: C11_13  and  C12_15 
REMARK    8  A    between atoms: C12_15  and  C13_16 
REMARK    9  A    between atoms: C12_15  and  C14_17 
REMARK   10  A    between atoms: C12_15  and  C15_18 
REMARK   11  A    between atoms: C16_19  and  O3_21 
REMARK   12  A    between atoms: O3_21  and  C17_22 
ROOT
ATOM      1  N1  <0> d          -2.096  -0.277  -0.985  0.00  0.00    -0.346 N 
ATOM      2  C11 <0> d          -2.692   0.907  -1.227  0.00  0.00     0.227 C 
ATOM      3  O1  <0> d          -3.167   1.135  -2.320  0.00  0.00    -0.273 OA
ENDROOT
BRANCH   1   4
ATOM      4  C3  <0> d          -1.381  -0.493   0.276  0.00  0.00     0.009 C 
ATOM      5  H5  <0> d          -1.734  -1.414   0.741  0.00  0.00     0.065 H 
ATOM      6  H6  <0> d          -1.566   0.346   0.946  0.00  0.00     0.065 H 
BRANCH   4   7
ATOM      7  C2  <0> d           0.119  -0.604  -0.002  0.00  0.00     0.042 C 
ATOM      8  H1  <0> d           0.297  -1.399  -0.725  0.00  0.00     0.057 H 
BRANCH   7   9
ATOM      9  C1  <0> d           0.633   0.723  -0.565  0.00  0.00    -0.063 C 
ATOM     10  H2  <0> d           1.572   0.554  -1.091  0.00  0.00     0.028 H 
ATOM     11  H3  <0> d          -0.103   1.133  -1.256  0.00  0.00     0.028 H 
ATOM     12  H4  <0> d           0.796   1.426   0.252  0.00  0.00     0.028 H 
ENDBRANCH   7   9
BRANCH   7  13
ATOM     13  C16 <0> d           0.845  -0.920   1.281  0.00  0.00     0.263 C 
ATOM     14  O2  <0> d           0.226  -1.044   2.311  0.00  0.00    -0.265 OA
BRANCH  13  15
ATOM     15  O3  <0> d           2.179  -1.064   1.279  0.00  0.00    -0.326 OA
BRANCH  15  16
ATOM     16  C17 <0> d           2.802  -1.363   2.530  0.00  0.00     0.013 C 
ATOM     17  H23 <0> d           2.595  -0.562   3.239  0.00  0.00     0.067 H 
ATOM     18  H24 <0> d           2.406  -2.303   2.917  0.00  0.00     0.067 H 
ATOM     19  H25 <0> d           3.879  -1.453   2.388  0.00  0.00     0.067 H 
ENDBRANCH  15  16
ENDBRANCH  13  15
ENDBRANCH   7  13
ENDBRANCH   4   7
ENDBRANCH   1   4
BRANCH   1  20
ATOM     20  C4  <0> d          -2.164  -1.349  -1.981  0.00  0.00     0.021 C 
ATOM     21  H7  <0> d          -2.225  -0.914  -2.979  0.00  0.00     0.071 H 
ATOM     22  H8  <0> d          -1.270  -1.968  -1.910  0.00  0.00     0.071 H 
BRANCH  20  23
ATOM     23  C5  <0> d          -3.384  -2.196  -1.726  0.00  0.00    -0.040 A 
ATOM     24  C10 <0> d          -4.586  -1.875  -2.328  0.00  0.00    -0.075 A 
ATOM     25  C9  <0> d          -5.704  -2.655  -2.098  0.00  0.00    -0.082 A 
ATOM     26  H13 <0> d          -4.651  -1.018  -2.982  0.00  0.00     0.084 H 
ATOM     27  C8  <0> d          -5.622  -3.750  -1.258  0.00  0.00    -0.083 A 
ATOM     28  H12 <0> d          -6.642  -2.407  -2.572  0.00  0.00     0.083 H 
ATOM     29  C7  <0> d          -4.421  -4.068  -0.652  0.00  0.00    -0.082 A 
ATOM     30  H11 <0> d          -6.496  -4.358  -1.076  0.00  0.00     0.083 H 
ATOM     31  C6  <0> d          -3.302  -3.290  -0.886  0.00  0.00    -0.075 A 
ATOM     32  H10 <0> d          -4.356  -4.923   0.004  0.00  0.00     0.083 H 
ATOM     33  H9  <0> d          -2.363  -3.538  -0.412  0.00  0.00     0.084 H 
ENDBRANCH  20  23
ENDBRANCH   1  20
BRANCH   2  34
ATOM     34  C12 <0> d          -2.768   1.949  -0.141  0.00  0.00     0.030 C 
BRANCH  34  35
ATOM     35  C13 <0> d          -3.575   3.149  -0.641  0.00  0.00    -0.061 C 
ATOM     36  H14 <0> d          -4.581   2.826  -0.905  0.00  0.00     0.029 H 
ATOM     37  H15 <0> d          -3.630   3.903   0.145  0.00  0.00     0.029 H 
ATOM     38  H16 <0> d          -3.087   3.574  -1.518  0.00  0.00     0.029 H 
ENDBRANCH  34  35
BRANCH  34  39
ATOM     39  C14 <0> d          -3.452   1.353   1.091  0.00  0.00    -0.061 C 
ATOM     40  H17 <0> d          -2.846   0.535   1.482  0.00  0.00     0.029 H 
ATOM     41  H18 <0> d          -3.560   2.122   1.855  0.00  0.00     0.029 H 
ATOM     42  H19 <0> d          -4.436   0.975   0.813  0.00  0.00     0.029 H 
ENDBRANCH  34  39
BRANCH  34  43
ATOM     43  C15 <0> d          -1.355   2.403   0.230  0.00  0.00    -0.061 C 
ATOM     44  H20 <0> d          -0.915   2.943  -0.609  0.00  0.00     0.029 H 
ATOM     45  H21 <0> d          -1.400   3.058   1.100  0.00  0.00     0.029 H 
ATOM     46  H22 <0> d          -0.743   1.532   0.462  0.00  0.00     0.029 H 
ENDBRANCH  34  43
ENDBRANCH   2  34
TORSDOF 12
