REMARK  12 active torsions:
REMARK  status: ('A' for Active; 'I' for Inactive)
REMARK    1  A    between atoms: C1_1  and  C2_2 
REMARK    2  A    between atoms: C2_2  and  C3_4 
REMARK    3  A    between atoms: C2_2  and  C14_19 
REMARK    4  A    between atoms: C3_4  and  N1_5 
REMARK    5  A    between atoms: N1_5  and  C4_6 
REMARK       I    between atoms: N1_5  and  C9_13 
REMARK    6  A    between atoms: C4_6  and  C5_7 
REMARK    7  A    between atoms: C9_13  and  C10_15 
REMARK    8  A    between atoms: C10_15  and  C11_16 
REMARK    9  A    between atoms: C10_15  and  C12_17 
REMARK   10  A    between atoms: C10_15  and  C13_18 
REMARK   11  A    between atoms: C14_19  and  O4_21 
REMARK   12  A    between atoms: O4_21  and  C15_22 
ROOT
ATOM      1  N1  <0> d          -0.892   0.057  -2.560  0.00  0.00    -0.348 N 
ATOM      2  C9  <0> d          -1.463  -1.121  -2.884  0.00  0.00     0.227 C 
ATOM      3  O2  <0> d          -2.046  -1.241  -3.940  0.00  0.00    -0.273 OA
ENDROOT
BRANCH   1   4
ATOM      4  C3  <0> d          -0.144   0.188  -1.307  0.00  0.00     0.009 C 
ATOM      5  H6  <0> d           0.714   0.842  -1.463  0.00  0.00     0.065 H 
ATOM      6  H7  <0> d           0.202  -0.794  -0.986  0.00  0.00     0.065 H 
BRANCH   4   7
ATOM      7  C2  <0> d          -1.052   0.786  -0.231  0.00  0.00     0.042 C 
ATOM      8  H1  <0> d          -1.937   0.160  -0.113  0.00  0.00     0.057 H 
BRANCH   7   9
ATOM      9  C1  <0> d          -1.477   2.196  -0.647  0.00  0.00    -0.063 C 
ATOM     10  H3  <0> d          -0.592   2.822  -0.765  0.00  0.00     0.028 H 
ATOM     11  H4  <0> d          -2.017   2.148  -1.593  0.00  0.00     0.028 H 
ATOM     12  H5  <0> d          -2.124   2.622   0.119  0.00  0.00     0.028 H 
ENDBRANCH   7   9
BRANCH   7  13
ATOM     13  C14 <0> d          -0.306   0.852   1.077  0.00  0.00     0.263 C 
ATOM     14  O3  <0> d           0.836   0.461   1.141  0.00  0.00    -0.265 OA
BRANCH  13  15
ATOM     15  O4  <0> d          -0.908   1.346   2.170  0.00  0.00    -0.326 OA
BRANCH  15  16
ATOM     16  C15 <0> d          -0.141   1.378   3.375  0.00  0.00     0.013 C 
ATOM     17  H25 <0> d          -0.745   1.799   4.179  0.00  0.00     0.067 H 
ATOM     18  H26 <0> d           0.162   0.366   3.640  0.00  0.00     0.067 H 
ATOM     19  H27 <0> d           0.744   1.996   3.225  0.00  0.00     0.067 H 
ENDBRANCH  15  16
ENDBRANCH  13  15
ENDBRANCH   7  13
ENDBRANCH   4   7
ENDBRANCH   1   4
BRANCH   1  20
ATOM     20  C4  <0> d          -1.021   1.205  -3.460  0.00  0.00     0.022 C 
ATOM     21  H8  <0> d          -1.963   1.137  -4.004  0.00  0.00     0.068 H 
ATOM     22  H9  <0> d          -1.003   2.127  -2.878  0.00  0.00     0.068 H 
BRANCH  20  23
ATOM     23  C5  <0> d           0.143   1.207  -4.454  0.00  0.00     0.054 C 
ATOM     24  H2  <0> d           1.089   1.173  -3.914  0.00  0.00     0.085 H 
ATOM     25  O1  <0> d           0.039   0.075  -5.325  0.00  0.00    -0.384 OA
ATOM     26  C8  <0> d          -0.124   0.518  -6.684  0.00  0.00     0.020 C 
ATOM     27  C7  <0> d           0.495   1.938  -6.724  0.00  0.00    -0.043 C 
ATOM     28  H14 <0> d          -1.181   0.558  -6.945  0.00  0.00     0.074 H 
ATOM     29  H15 <0> d           0.409  -0.147  -7.364  0.00  0.00     0.074 H 
ATOM     30  C6  <0> d           0.083   2.478  -5.328  0.00  0.00    -0.037 C 
ATOM     31  H12 <0> d           0.055   2.535  -7.522  0.00  0.00     0.036 H 
ATOM     32  H13 <0> d           1.579   1.891  -6.823  0.00  0.00     0.036 H 
ATOM     33  H10 <0> d          -0.928   2.885  -5.352  0.00  0.00     0.036 H 
ATOM     34  H11 <0> d           0.795   3.225  -4.976  0.00  0.00     0.036 H 
ENDBRANCH  20  23
ENDBRANCH   1  20
BRANCH   2  35
ATOM     35  C10 <0> d          -1.376  -2.287  -1.933  0.00  0.00     0.030 C 
BRANCH  35  36
ATOM     36  C11 <0> d          -2.298  -3.408  -2.416  0.00  0.00    -0.061 C 
ATOM     37  H16 <0> d          -1.990  -3.727  -3.412  0.00  0.00     0.029 H 
ATOM     38  H17 <0> d          -2.235  -4.252  -1.729  0.00  0.00     0.029 H 
ATOM     39  H18 <0> d          -3.325  -3.044  -2.452  0.00  0.00     0.029 H 
ENDBRANCH  35  36
BRANCH  35  40
ATOM     40  C12 <0> d           0.066  -2.797  -1.883  0.00  0.00    -0.061 C 
ATOM     41  H19 <0> d           0.714  -2.016  -1.487  0.00  0.00     0.029 H 
ATOM     42  H20 <0> d           0.118  -3.675  -1.238  0.00  0.00     0.029 H 
ATOM     43  H21 <0> d           0.391  -3.066  -2.888  0.00  0.00     0.029 H 
ENDBRANCH  35  40
BRANCH  35  44
ATOM     44  C13 <0> d          -1.807  -1.839  -0.535  0.00  0.00    -0.061 C 
ATOM     45  H22 <0> d          -2.731  -1.264  -0.607  0.00  0.00     0.029 H 
ATOM     46  H23 <0> d          -1.972  -2.714   0.092  0.00  0.00     0.029 H 
ATOM     47  H24 <0> d          -1.026  -1.218  -0.096  0.00  0.00     0.029 H 
ENDBRANCH  35  44
ENDBRANCH   2  35
TORSDOF 12
