REMARK  13 active torsions:
REMARK  status: ('A' for Active; 'I' for Inactive)
REMARK    1  A    between atoms: C1_1  and  C2_2 
REMARK    2  A    between atoms: C2_2  and  C3_4 
REMARK    3  A    between atoms: C2_2  and  C12_15 
REMARK    4  A    between atoms: C3_4  and  N1_5 
REMARK    5  A    between atoms: N1_5  and  C4_6 
REMARK       I    between atoms: N1_5  and  C7_9 
REMARK    6  A    between atoms: C4_6  and  C5_7 
REMARK    7  A    between atoms: C4_6  and  C6_8 
REMARK    8  A    between atoms: C7_9  and  C8_11 
REMARK    9  A    between atoms: C8_11  and  C9_12 
REMARK   10  A    between atoms: C8_11  and  C10_13 
REMARK   11  A    between atoms: C8_11  and  C11_14 
REMARK   12  A    between atoms: C12_15  and  O3_17 
REMARK   13  A    between atoms: O3_17  and  C13_18 
ROOT
ATOM      1  N1  <0> d          -2.122   0.051  -1.525  0.00  0.00    -0.347 N 
ATOM      2  C7  <0> d          -2.845   1.166  -1.300  0.00  0.00     0.227 C 
ATOM      3  O1  <0> d          -3.788   1.433  -2.016  0.00  0.00    -0.273 OA
ENDROOT
BRANCH   1   4
ATOM      4  C3  <0> d          -1.028  -0.307  -0.620  0.00  0.00     0.010 C 
ATOM      5  H5  <0> d          -1.227  -1.283  -0.177  0.00  0.00     0.065 H 
ATOM      6  H6  <0> d          -0.950   0.441   0.170  0.00  0.00     0.065 H 
BRANCH   4   7
ATOM      7  C2  <0> d           0.286  -0.360  -1.403  0.00  0.00     0.042 C 
ATOM      8  H1  <0> d           0.228  -1.146  -2.156  0.00  0.00     0.057 H 
BRANCH   7   9
ATOM      9  C1  <0> d           0.525   0.987  -2.089  0.00  0.00    -0.063 C 
ATOM     10  H2  <0> d           1.375   0.903  -2.767  0.00  0.00     0.028 H 
ATOM     11  H3  <0> d          -0.363   1.270  -2.653  0.00  0.00     0.028 H 
ATOM     12  H4  <0> d           0.735   1.746  -1.335  0.00  0.00     0.028 H 
ENDBRANCH   7   9
BRANCH   7  13
ATOM     13  C12 <0> d           1.423  -0.652  -0.458  0.00  0.00     0.263 C 
ATOM     14  O2  <0> d           1.205  -0.802   0.721  0.00  0.00    -0.265 OA
BRANCH  13  15
ATOM     15  O3  <0> d           2.677  -0.745  -0.926  0.00  0.00    -0.326 OA
BRANCH  15  16
ATOM     16  C13 <0> d           3.706  -1.024   0.026  0.00  0.00     0.013 C 
ATOM     17  H23 <0> d           3.731  -0.234   0.775  0.00  0.00     0.067 H 
ATOM     18  H24 <0> d           3.503  -1.979   0.511  0.00  0.00     0.067 H 
ATOM     19  H25 <0> d           4.668  -1.073  -0.483  0.00  0.00     0.067 H 
ENDBRANCH  15  16
ENDBRANCH  13  15
ENDBRANCH   7  13
ENDBRANCH   4   7
ENDBRANCH   1   4
BRANCH   1  20
ATOM     20  C4  <0> d          -2.431  -0.802  -2.675  0.00  0.00     0.007 C 
ATOM     21  H7  <0> d          -1.723  -1.630  -2.713  0.00  0.00     0.071 H 
BRANCH  20  22
ATOM     22  C5  <0> d          -3.852  -1.352  -2.535  0.00  0.00    -0.057 C 
ATOM     23  H8  <0> d          -4.566  -0.531  -2.591  0.00  0.00     0.030 H 
ATOM     24  H9  <0> d          -4.048  -2.060  -3.341  0.00  0.00     0.030 H 
ATOM     25  H10 <0> d          -3.953  -1.857  -1.575  0.00  0.00     0.030 H 
ENDBRANCH  20  22
BRANCH  20  26
ATOM     26  C6  <0> d          -2.325   0.018  -3.962  0.00  0.00    -0.057 C 
ATOM     27  H11 <0> d          -1.296   0.347  -4.100  0.00  0.00     0.030 H 
ATOM     28  H12 <0> d          -2.627  -0.596  -4.810  0.00  0.00     0.030 H 
ATOM     29  H13 <0> d          -2.979   0.888  -3.893  0.00  0.00     0.030 H 
ENDBRANCH  20  26
ENDBRANCH   1  20
BRANCH   2  30
ATOM     30  C8  <0> d          -2.483   2.082  -0.160  0.00  0.00     0.030 C 
BRANCH  30  31
ATOM     31  C9  <0> d          -3.413   3.297  -0.166  0.00  0.00    -0.061 C 
ATOM     32  H14 <0> d          -4.445   2.964  -0.051  0.00  0.00     0.029 H 
ATOM     33  H15 <0> d          -3.151   3.959   0.659  0.00  0.00     0.029 H 
ATOM     34  H16 <0> d          -3.307   3.832  -1.109  0.00  0.00     0.029 H 
ENDBRANCH  30  31
BRANCH  30  35
ATOM     35  C10 <0> d          -2.633   1.331   1.165  0.00  0.00    -0.061 C 
ATOM     36  H17 <0> d          -1.925   0.503   1.195  0.00  0.00     0.029 H 
ATOM     37  H18 <0> d          -2.432   2.011   1.993  0.00  0.00     0.029 H 
ATOM     38  H19 <0> d          -3.648   0.944   1.250  0.00  0.00     0.029 H 
ENDBRANCH  30  35
BRANCH  30  39
ATOM     39  C11 <0> d          -1.035   2.549  -0.321  0.00  0.00    -0.061 C 
ATOM     40  H20 <0> d          -0.905   2.997  -1.306  0.00  0.00     0.029 H 
ATOM     41  H21 <0> d          -0.803   3.286   0.448  0.00  0.00     0.029 H 
ATOM     42  H22 <0> d          -0.364   1.695  -0.219  0.00  0.00     0.029 H 
ENDBRANCH  30  39
ENDBRANCH   2  30
TORSDOF 13
