REMARK  8 active torsions:
REMARK  status: ('A' for Active; 'I' for Inactive)
REMARK    1  A    between atoms: C1_1  and  C2_2 
REMARK    2  A    between atoms: C2_2  and  N1_3 
REMARK    3  A    between atoms: N1_3  and  C3_4 
REMARK       I    between atoms: N1_3  and  C7_10 
REMARK    4  A    between atoms: C3_4  and  C4_5 
REMARK    5  A    between atoms: C4_5  and  C5_6 
REMARK    6  A    between atoms: C5_6  and  O2_8 
REMARK    7  A    between atoms: O2_8  and  C6_9 
REMARK    8  A    between atoms: C7_10  and  C8_12 
ROOT
ATOM      1  N1  <0> d           0.675  -0.543  -1.178  0.00  0.00    -0.348 N 
ATOM      2  C7  <0> d          -0.025  -0.801  -2.300  0.00  0.00     0.257 C 
ATOM      3  O3  <0> d          -1.214  -0.555  -2.345  0.00  0.00    -0.267 OA
ENDROOT
BRANCH   1   4
ATOM      4  C2  <0> d          -0.015  -0.062   0.021  0.00  0.00    -0.005 C 
ATOM      5  H4  <0> d           0.468  -0.471   0.908  0.00  0.00     0.063 H 
ATOM      6  H5  <0> d          -1.057  -0.383  -0.005  0.00  0.00     0.063 H 
BRANCH   4   7
ATOM      7  C1  <0> d           0.046   1.466   0.066  0.00  0.00    -0.061 C 
ATOM      8  H1  <0> d           1.087   1.787   0.093  0.00  0.00     0.029 H 
ATOM      9  H2  <0> d          -0.438   1.875  -0.821  0.00  0.00     0.029 H 
ATOM     10  H3  <0> d          -0.468   1.824   0.958  0.00  0.00     0.029 H 
ENDBRANCH   4   7
ENDBRANCH   1   4
BRANCH   1  11
ATOM     11  C3  <0> d           2.126  -0.745  -1.156  0.00  0.00     0.006 C 
ATOM     12  H6  <0> d           2.531  -0.577  -2.154  0.00  0.00     0.065 H 
ATOM     13  H7  <0> d           2.580  -0.043  -0.457  0.00  0.00     0.065 H 
BRANCH  11  14
ATOM     14  C4  <0> d           2.435  -2.177  -0.715  0.00  0.00     0.031 C 
ATOM     15  H8  <0> d           2.030  -2.345   0.283  0.00  0.00     0.050 H 
ATOM     16  H9  <0> d           1.981  -2.879  -1.414  0.00  0.00     0.050 H 
BRANCH  14  17
ATOM     17  C5  <0> d           3.928  -2.385  -0.693  0.00  0.00     0.259 C 
ATOM     18  O1  <0> d           4.668  -1.480  -0.998  0.00  0.00    -0.265 OA
BRANCH  17  19
ATOM     19  O2  <0> d           4.434  -3.575  -0.333  0.00  0.00    -0.326 OA
BRANCH  19  20
ATOM     20  C6  <0> d           5.858  -3.701  -0.334  0.00  0.00     0.013 C 
ATOM     21  H10 <0> d           6.238  -3.512  -1.338  0.00  0.00     0.067 H 
ATOM     22  H11 <0> d           6.287  -2.978   0.359  0.00  0.00     0.067 H 
ATOM     23  H12 <0> d           6.134  -4.709  -0.025  0.00  0.00     0.067 H 
ENDBRANCH  19  20
ENDBRANCH  17  19
ENDBRANCH  14  17
ENDBRANCH  11  14
ENDBRANCH   1  11
BRANCH   2  24
ATOM     24  C8  <0> d           0.654  -1.381  -3.476  0.00  0.00     0.074 A 
ATOM     25  C13 <0> d           0.226  -2.604  -4.001  0.00  0.00     0.173 A 
ATOM     26  C12 <0> d           0.864  -3.139  -5.106  0.00  0.00     0.194 A 
ATOM     27  F1  <0> d          -0.810  -3.260  -3.434  0.00  0.00    -0.202 F 
ATOM     28  C11 <0> d           1.931  -2.468  -5.684  0.00  0.00     0.158 A 
ATOM     29  F2  <0> d           0.450  -4.318  -5.620  0.00  0.00    -0.200 F 
ATOM     30  C10 <0> d           2.361  -1.257  -5.162  0.00  0.00    -0.041 A 
ATOM     31  F3  <0> d           2.555  -2.996  -6.760  0.00  0.00    -0.203 F 
ATOM     32  C9  <0> d           1.730  -0.712  -4.066  0.00  0.00    -0.062 A 
ATOM     33  H14 <0> d           3.192  -0.739  -5.618  0.00  0.00     0.088 H 
ATOM     34  H13 <0> d           2.067   0.232  -3.662  0.00  0.00     0.085 H 
ENDBRANCH   2  24
TORSDOF 8
