REMARK  12 active torsions:
REMARK  status: ('A' for Active; 'I' for Inactive)
REMARK    1  A    between atoms: C1_1  and  C2_2 
REMARK    2  A    between atoms: C2_2  and  C3_4 
REMARK    3  A    between atoms: C2_2  and  C14_19 
REMARK    4  A    between atoms: C3_4  and  N1_5 
REMARK    5  A    between atoms: N1_5  and  C4_6 
REMARK       I    between atoms: N1_5  and  C9_13 
REMARK    6  A    between atoms: C4_6  and  C5_7 
REMARK    7  A    between atoms: C9_13  and  C10_15 
REMARK    8  A    between atoms: C10_15  and  C11_16 
REMARK    9  A    between atoms: C10_15  and  C12_17 
REMARK   10  A    between atoms: C10_15  and  C13_18 
REMARK   11  A    between atoms: C14_19  and  O4_21 
REMARK   12  A    between atoms: O4_21  and  C15_22 
ROOT
ATOM      1  N1  <0> d           0.863   0.480   3.171  0.00  0.00    -0.348 N 
ATOM      2  C9  <0> d          -0.094   1.419   3.311  0.00  0.00     0.227 C 
ATOM      3  O2  <0> d          -0.093   2.398   2.595  0.00  0.00    -0.273 OA
ENDROOT
BRANCH   1   4
ATOM      4  C3  <0> d           1.976   0.701   2.244  0.00  0.00     0.009 C 
ATOM      5  H6  <0> d           2.887   0.275   2.663  0.00  0.00     0.065 H 
ATOM      6  H7  <0> d           2.112   1.771   2.089  0.00  0.00     0.065 H 
BRANCH   4   7
ATOM      7  C2  <0> d           1.666   0.026   0.906  0.00  0.00     0.042 C 
ATOM      8  H1  <0> d           1.513  -1.041   1.064  0.00  0.00     0.057 H 
BRANCH   7   9
ATOM      9  C1  <0> d           0.398   0.640   0.307  0.00  0.00    -0.063 C 
ATOM     10  H3  <0> d           0.511   1.722   0.250  0.00  0.00     0.028 H 
ATOM     11  H4  <0> d           0.238   0.238  -0.693  0.00  0.00     0.028 H 
ATOM     12  H5  <0> d          -0.456   0.396   0.938  0.00  0.00     0.028 H 
ENDBRANCH   7   9
BRANCH   7  13
ATOM     13  C14 <0> d           2.820   0.234  -0.040  0.00  0.00     0.263 C 
ATOM     14  O3  <0> d           3.791   0.858   0.319  0.00  0.00    -0.265 OA
BRANCH  13  15
ATOM     15  O4  <0> d           2.769  -0.273  -1.282  0.00  0.00    -0.326 OA
BRANCH  15  16
ATOM     16  C15 <0> d           3.899  -0.038  -2.125  0.00  0.00     0.013 C 
ATOM     17  H25 <0> d           3.729  -0.500  -3.098  0.00  0.00     0.067 H 
ATOM     18  H26 <0> d           4.039   1.036  -2.253  0.00  0.00     0.067 H 
ATOM     19  H27 <0> d           4.790  -0.469  -1.669  0.00  0.00     0.067 H 
ENDBRANCH  15  16
ENDBRANCH  13  15
ENDBRANCH   7  13
ENDBRANCH   4   7
ENDBRANCH   1   4
BRANCH   1  20
ATOM     20  C4  <0> d           0.790  -0.761   3.946  0.00  0.00     0.022 C 
ATOM     21  H8  <0> d          -0.234  -0.918   4.285  0.00  0.00     0.068 H 
ATOM     22  H9  <0> d           1.098  -1.599   3.321  0.00  0.00     0.068 H 
BRANCH  20  23
ATOM     23  C5  <0> d           1.718  -0.661   5.158  0.00  0.00     0.054 C 
ATOM     24  H2  <0> d           1.469   0.218   5.753  0.00  0.00     0.085 H 
ATOM     25  O1  <0> d           3.089  -0.603   4.733  0.00  0.00    -0.384 OA
ATOM     26  C8  <0> d           3.916  -1.329   5.653  0.00  0.00     0.020 C 
ATOM     27  C7  <0> d           2.994  -1.931   6.735  0.00  0.00    -0.043 C 
ATOM     28  H14 <0> d           4.635  -0.652   6.114  0.00  0.00     0.074 H 
ATOM     29  H15 <0> d           4.441  -2.127   5.129  0.00  0.00     0.074 H 
ATOM     30  C6  <0> d           1.613  -1.942   6.023  0.00  0.00    -0.037 C 
ATOM     31  H12 <0> d           2.968  -1.295   7.620  0.00  0.00     0.036 H 
ATOM     32  H13 <0> d           3.306  -2.943   6.992  0.00  0.00     0.036 H 
ATOM     33  H10 <0> d           0.799  -1.865   6.743  0.00  0.00     0.036 H 
ATOM     34  H11 <0> d           1.501  -2.829   5.399  0.00  0.00     0.036 H 
ENDBRANCH  20  23
ENDBRANCH   1  20
BRANCH   2  35
ATOM     35  C10 <0> d          -1.165   1.254   4.358  0.00  0.00     0.030 C 
BRANCH  35  36
ATOM     36  C11 <0> d          -1.919   2.574   4.530  0.00  0.00    -0.061 C 
ATOM     37  H16 <0> d          -2.377   2.857   3.583  0.00  0.00     0.029 H 
ATOM     38  H17 <0> d          -2.693   2.454   5.288  0.00  0.00     0.029 H 
ATOM     39  H18 <0> d          -1.222   3.352   4.843  0.00  0.00     0.029 H 
ENDBRANCH  35  36
BRANCH  35  40
ATOM     40  C12 <0> d          -2.143   0.162   3.919  0.00  0.00    -0.061 C 
ATOM     41  H19 <0> d          -1.608  -0.781   3.808  0.00  0.00     0.029 H 
ATOM     42  H20 <0> d          -2.924   0.050   4.671  0.00  0.00     0.029 H 
ATOM     43  H21 <0> d          -2.593   0.439   2.966  0.00  0.00     0.029 H 
ENDBRANCH  35  40
BRANCH  35  44
ATOM     44  C13 <0> d          -0.521   0.857   5.688  0.00  0.00    -0.061 C 
ATOM     45  H22 <0> d           0.361   1.473   5.863  0.00  0.00     0.029 H 
ATOM     46  H23 <0> d          -1.235   1.008   6.497  0.00  0.00     0.029 H 
ATOM     47  H24 <0> d          -0.230  -0.193   5.652  0.00  0.00     0.029 H 
ENDBRANCH  35  44
ENDBRANCH   2  35
TORSDOF 12
