REMARK  12 active torsions:
REMARK  status: ('A' for Active; 'I' for Inactive)
REMARK    1  A    between atoms: C1_1  and  C2_2 
REMARK    2  A    between atoms: C2_2  and  C3_4 
REMARK    3  A    between atoms: C2_2  and  C16_19 
REMARK    4  A    between atoms: C3_4  and  N1_5 
REMARK    5  A    between atoms: N1_5  and  C4_6 
REMARK       I    between atoms: N1_5  and  C11_13 
REMARK    6  A    between atoms: C4_6  and  C5_7 
REMARK    7  A    between atoms: C11_13  and  C12_15 
REMARK    8  A    between atoms: C12_15  and  C13_16 
REMARK    9  A    between atoms: C12_15  and  C14_17 
REMARK   10  A    between atoms: C12_15  and  C15_18 
REMARK   11  A    between atoms: C16_19  and  O3_21 
REMARK   12  A    between atoms: O3_21  and  C17_22 
ROOT
ATOM      1  N1  <0> d           2.667   0.088   0.509  0.00  0.00    -0.346 N 
ATOM      2  C11 <0> d           3.251  -1.073   0.154  0.00  0.00     0.227 C 
ATOM      3  O1  <0> d           4.459  -1.176   0.175  0.00  0.00    -0.273 OA
ENDROOT
BRANCH   1   4
ATOM      4  C3  <0> d           1.206   0.197   0.534  0.00  0.00     0.009 C 
ATOM      5  H5  <0> d           0.903   0.830   1.368  0.00  0.00     0.065 H 
ATOM      6  H6  <0> d           0.770  -0.795   0.653  0.00  0.00     0.065 H 
BRANCH   4   7
ATOM      7  C2  <0> d           0.718   0.813  -0.778  0.00  0.00     0.042 C 
ATOM      8  H1  <0> d           1.067   0.209  -1.616  0.00  0.00     0.057 H 
BRANCH   7   9
ATOM      9  C1  <0> d           1.269   2.235  -0.910  0.00  0.00    -0.063 C 
ATOM     10  H2  <0> d           2.359   2.203  -0.906  0.00  0.00     0.028 H 
ATOM     11  H3  <0> d           0.922   2.674  -1.845  0.00  0.00     0.028 H 
ATOM     12  H4  <0> d           0.920   2.839  -0.073  0.00  0.00     0.028 H 
ENDBRANCH   7   9
BRANCH   7  13
ATOM     13  C16 <0> d          -0.788   0.856  -0.784  0.00  0.00     0.263 C 
ATOM     14  O2  <0> d          -1.408   0.436   0.165  0.00  0.00    -0.265 OA
BRANCH  13  15
ATOM     15  O3  <0> d          -1.442   1.361  -1.842  0.00  0.00    -0.326 OA
BRANCH  15  16
ATOM     16  C17 <0> d          -2.869   1.370  -1.779  0.00  0.00     0.013 C 
ATOM     17  H23 <0> d          -3.235   0.349  -1.669  0.00  0.00     0.067 H 
ATOM     18  H24 <0> d          -3.191   1.966  -0.925  0.00  0.00     0.067 H 
ATOM     19  H25 <0> d          -3.270   1.802  -2.696  0.00  0.00     0.067 H 
ENDBRANCH  15  16
ENDBRANCH  13  15
ENDBRANCH   7  13
ENDBRANCH   4   7
ENDBRANCH   1   4
BRANCH   1  20
ATOM     20  C4  <0> d           3.493   1.243   0.870  0.00  0.00     0.021 C 
ATOM     21  H7  <0> d           4.436   1.200   0.325  0.00  0.00     0.071 H 
ATOM     22  H8  <0> d           2.966   2.162   0.613  0.00  0.00     0.071 H 
BRANCH  20  23
ATOM     23  C5  <0> d           3.769   1.220   2.352  0.00  0.00    -0.040 A 
ATOM     24  C10 <0> d           4.883   0.562   2.837  0.00  0.00    -0.075 A 
ATOM     25  C9  <0> d           5.138   0.545   4.196  0.00  0.00    -0.082 A 
ATOM     26  H13 <0> d           5.557   0.065   2.155  0.00  0.00     0.084 H 
ATOM     27  C8  <0> d           4.273   1.177   5.070  0.00  0.00    -0.083 A 
ATOM     28  H12 <0> d           6.012   0.035   4.575  0.00  0.00     0.083 H 
ATOM     29  C7  <0> d           3.156   1.830   4.585  0.00  0.00    -0.082 A 
ATOM     30  H11 <0> d           4.471   1.161   6.131  0.00  0.00     0.083 H 
ATOM     31  C6  <0> d           2.903   1.851   3.226  0.00  0.00    -0.075 A 
ATOM     32  H10 <0> d           2.480   2.324   5.267  0.00  0.00     0.083 H 
ATOM     33  H9  <0> d           2.030   2.361   2.847  0.00  0.00     0.084 H 
ENDBRANCH  20  23
ENDBRANCH   1  20
BRANCH   2  34
ATOM     34  C12 <0> d           2.402  -2.245  -0.269  0.00  0.00     0.030 C 
BRANCH  34  35
ATOM     35  C13 <0> d           3.299  -3.341  -0.848  0.00  0.00    -0.061 C 
ATOM     36  H14 <0> d           4.013  -3.664  -0.091  0.00  0.00     0.029 H 
ATOM     37  H15 <0> d           2.685  -4.188  -1.154  0.00  0.00     0.029 H 
ATOM     38  H16 <0> d           3.837  -2.951  -1.712  0.00  0.00     0.029 H 
ENDBRANCH  34  35
BRANCH  34  39
ATOM     39  C14 <0> d           1.647  -2.791   0.944  0.00  0.00    -0.061 C 
ATOM     40  H17 <0> d           0.968  -2.028   1.323  0.00  0.00     0.029 H 
ATOM     41  H18 <0> d           1.076  -3.672   0.649  0.00  0.00     0.029 H 
ATOM     42  H19 <0> d           2.359  -3.064   1.723  0.00  0.00     0.029 H 
ENDBRANCH  34  39
BRANCH  34  43
ATOM     43  C15 <0> d           1.400  -1.791  -1.332  0.00  0.00    -0.061 C 
ATOM     44  H20 <0> d           1.914  -1.193  -2.085  0.00  0.00     0.029 H 
ATOM     45  H21 <0> d           0.952  -2.664  -1.806  0.00  0.00     0.029 H 
ATOM     46  H22 <0> d           0.620  -1.191  -0.863  0.00  0.00     0.029 H 
ENDBRANCH  34  43
ENDBRANCH   2  34
TORSDOF 12
