REMARK  5 active torsions:
REMARK  status: ('A' for Active; 'I' for Inactive)
REMARK    1  A    between atoms: C1_1  and  C2_2 
REMARK    2  A    between atoms: C2_2  and  N1_3 
REMARK    3  A    between atoms: C3_4  and  C14_23 
REMARK    4  A    between atoms: C6_7  and  C8_10 
REMARK       I    between atoms: C8_10  and  N2_12 
REMARK    5  A    between atoms: C11_16  and  C13_19 
ROOT
ATOM      1  N1  <0> d           0.610  -0.840   1.113  0.00  0.00    -0.318 N 
ATOM      2  C3  <0> d           1.937  -1.097   1.027  0.00  0.00     0.011 A 
ATOM      3  C4  <0> d           2.666  -1.411   2.128  0.00  0.00    -0.060 A 
ATOM      4  C5  <0> d           2.054  -1.474   3.379  0.00  0.00    -0.060 A 
ATOM      5  C6  <0> d           0.689  -1.211   3.476  0.00  0.00     0.100 A 
ATOM      6  C7  <0> d          -0.030  -0.882   2.297  0.00  0.00     0.263 A 
ATOM      7  O1  <0> d          -1.224  -0.643   2.356  0.00  0.00    -0.267 OA
ATOM      8  H7  <0> d           3.723  -1.612   2.035  0.00  0.00     0.086 H 
ATOM      9  H8  <0> d           2.628  -1.723   4.259  0.00  0.00     0.085 H 
ENDROOT
BRANCH   5  10
ATOM     10  C8  <0> d           0.006  -1.268   4.777  0.00  0.00     0.259 C 
ATOM     11  O2  <0> d          -0.650  -2.247   5.078  0.00  0.00    -0.267 OA
ATOM     12  N2  <0> d           0.107  -0.235   5.637  0.00  0.00    -0.343 N 
ATOM     13  C12 <0> d          -0.652  -0.221   6.897  0.00  0.00     0.030 C 
ATOM     14  C9  <0> d           0.975   0.916   5.340  0.00  0.00     0.018 C 
ATOM     15  C11 <0> d          -1.386   1.115   7.011  0.00  0.00     0.147 C 
ATOM     16  H13 <0> d          -1.375  -1.037   6.899  0.00  0.00     0.068 H 
ATOM     17  H14 <0> d           0.031  -0.334   7.739  0.00  0.00     0.068 H 
ATOM     18  O3  <0> d          -0.456   2.183   6.818  0.00  0.00    -0.374 OA
ATOM     19  H1  <0> d          -2.163   1.167   6.247  0.00  0.00     0.099 H 
ATOM     20  C10 <0> d           0.158   2.199   5.527  0.00  0.00     0.035 C 
ATOM     21  H11 <0> d           0.816   3.064   5.447  0.00  0.00     0.076 H 
ATOM     22  H12 <0> d          -0.613   2.255   4.758  0.00  0.00     0.076 H 
ATOM     23  H9  <0> d           1.825   0.919   6.022  0.00  0.00     0.067 H 
ATOM     24  H10 <0> d           1.330   0.852   4.312  0.00  0.00     0.067 H 
BRANCH  15  25
ATOM     25  C13 <0> d          -2.023   1.236   8.396  0.00  0.00     0.414 C 
ATOM     26  F1  <0> d          -2.692   2.461   8.497  0.00  0.00    -0.168 F 
ATOM     27  F2  <0> d          -2.934   0.190   8.584  0.00  0.00    -0.168 F 
ATOM     28  F3  <0> d          -1.026   1.167   9.375  0.00  0.00    -0.168 F 
ENDBRANCH  15  25
ENDBRANCH   5  10
BRANCH   1  29
ATOM     29  C2  <0> d          -0.140  -0.505  -0.100  0.00  0.00    -0.001 C 
ATOM     30  H5  <0> d           0.507   0.038  -0.789  0.00  0.00     0.064 H 
ATOM     31  H6  <0> d          -0.995   0.118   0.162  0.00  0.00     0.064 H 
BRANCH  29  32
ATOM     32  C1  <0> d          -0.631  -1.791  -0.768  0.00  0.00    -0.061 C 
ATOM     33  H2  <0> d          -1.278  -2.334  -0.079  0.00  0.00     0.029 H 
ATOM     34  H3  <0> d          -1.189  -1.542  -1.670  0.00  0.00     0.029 H 
ATOM     35  H4  <0> d           0.225  -2.414  -1.030  0.00  0.00     0.029 H 
ENDBRANCH  29  32
ENDBRANCH   1  29
BRANCH   2  36
ATOM     36  C14 <0> d           2.616  -1.034  -0.317  0.00  0.00    -0.037 C 
ATOM     37  H15 <0> d           3.038  -0.040  -0.464  0.00  0.00     0.035 H 
ATOM     38  H16 <0> d           3.413  -1.777  -0.356  0.00  0.00     0.035 H 
ATOM     39  H17 <0> d           1.889  -1.240  -1.102  0.00  0.00     0.035 H 
ENDBRANCH   2  36
TORSDOF 5
