REMARK  12 active torsions:
REMARK  status: ('A' for Active; 'I' for Inactive)
REMARK    1  A    between atoms: C1_1  and  C2_2 
REMARK    2  A    between atoms: C2_2  and  C3_4 
REMARK    3  A    between atoms: C2_2  and  C17_22 
REMARK    4  A    between atoms: C3_4  and  N1_5 
REMARK    5  A    between atoms: N1_5  and  C4_6 
REMARK       I    between atoms: N1_5  and  C12_16 
REMARK    6  A    between atoms: C4_6  and  C5_7 
REMARK    7  A    between atoms: C12_16  and  C13_18 
REMARK    8  A    between atoms: C13_18  and  C14_19 
REMARK    9  A    between atoms: C13_18  and  C15_20 
REMARK   10  A    between atoms: C13_18  and  C16_21 
REMARK   11  A    between atoms: C17_22  and  O5_24 
REMARK   12  A    between atoms: O5_24  and  C18_25 
ROOT
ATOM      1  N1  <0> d           1.909  -0.221  -1.327  0.00  0.00    -0.346 N 
ATOM      2  C12 <0> d           2.399   0.979  -1.698  0.00  0.00     0.227 C 
ATOM      3  O3  <0> d           3.579   1.222  -1.558  0.00  0.00    -0.273 OA
ENDROOT
BRANCH   1   4
ATOM      4  C3  <0> d           0.464  -0.459  -1.343  0.00  0.00     0.009 C 
ATOM      5  H5  <0> d           0.252  -1.372  -1.899  0.00  0.00     0.065 H 
ATOM      6  H6  <0> d          -0.038   0.382  -1.821  0.00  0.00     0.065 H 
BRANCH   4   7
ATOM      7  C2  <0> d          -0.044  -0.607   0.093  0.00  0.00     0.042 C 
ATOM      8  H1  <0> d           0.506  -1.403   0.593  0.00  0.00     0.057 H 
BRANCH   7   9
ATOM      9  C1  <0> d           0.166   0.709   0.846  0.00  0.00    -0.063 C 
ATOM     10  H2  <0> d           1.126   1.140   0.563  0.00  0.00     0.028 H 
ATOM     11  H3  <0> d          -0.634   1.404   0.593  0.00  0.00     0.028 H 
ATOM     12  H4  <0> d           0.156   0.518   1.919  0.00  0.00     0.028 H 
ENDBRANCH   7   9
BRANCH   7  13
ATOM     13  C17 <0> d          -1.512  -0.945   0.074  0.00  0.00     0.263 C 
ATOM     14  O4  <0> d          -2.093  -1.057  -0.980  0.00  0.00    -0.265 OA
BRANCH  13  15
ATOM     15  O5  <0> d          -2.175  -1.123   1.228  0.00  0.00    -0.326 OA
BRANCH  15  16
ATOM     16  C18 <0> d          -3.565  -1.442   1.135  0.00  0.00     0.013 C 
ATOM     17  H23 <0> d          -4.088  -0.638   0.617  0.00  0.00     0.067 H 
ATOM     18  H24 <0> d          -3.688  -2.372   0.581  0.00  0.00     0.067 H 
ATOM     19  H25 <0> d          -3.978  -1.559   2.137  0.00  0.00     0.067 H 
ENDBRANCH  15  16
ENDBRANCH  13  15
ENDBRANCH   7  13
ENDBRANCH   4   7
ENDBRANCH   1   4
BRANCH   1  20
ATOM     20  C4  <0> d           2.823  -1.287  -0.908  0.00  0.00     0.021 C 
ATOM     21  H7  <0> d           3.711  -0.847  -0.455  0.00  0.00     0.071 H 
ATOM     22  H8  <0> d           2.324  -1.929  -0.183  0.00  0.00     0.071 H 
BRANCH  20  23
ATOM     23  C5  <0> d           3.225  -2.104  -2.109  0.00  0.00    -0.037 A 
ATOM     24  C10 <0> d           4.343  -1.750  -2.842  0.00  0.00    -0.040 A 
ATOM     25  C9  <0> d           4.717  -2.503  -3.943  0.00  0.00     0.105 A 
ATOM     26  H11 <0> d           4.926  -0.889  -2.553  0.00  0.00     0.088 H 
ATOM     27  C8  <0> d           3.958  -3.610  -4.315  0.00  0.00     0.105 A 
ATOM     28  O1  <0> d           5.758  -2.374  -4.816  0.00  0.00    -0.323 OA
ATOM     29  C7  <0> d           2.836  -3.956  -3.580  0.00  0.00    -0.047 A 
ATOM     30  O2  <0> d           4.524  -4.174  -5.422  0.00  0.00    -0.323 OA
ATOM     31  C6  <0> d           2.472  -3.203  -2.479  0.00  0.00    -0.072 A 
ATOM     32  H10 <0> d           2.246  -4.814  -3.866  0.00  0.00     0.087 H 
ATOM     33  H9  <0> d           1.597  -3.474  -1.906  0.00  0.00     0.084 H 
ATOM     34  C11 <0> d           5.863  -3.647  -5.480  0.00  0.00     0.115 C 
ATOM     35  H12 <0> d           6.177  -3.514  -6.516  0.00  0.00     0.118 H 
ATOM     36  H13 <0> d           6.556  -4.300  -4.950  0.00  0.00     0.118 H 
ENDBRANCH  20  23
ENDBRANCH   1  20
BRANCH   2  37
ATOM     37  C13 <0> d           1.480   2.018  -2.286  0.00  0.00     0.030 C 
BRANCH  37  38
ATOM     38  C14 <0> d           2.297   3.240  -2.710  0.00  0.00    -0.061 C 
ATOM     39  H14 <0> d           3.034   2.943  -3.456  0.00  0.00     0.029 H 
ATOM     40  H15 <0> d           1.632   3.992  -3.135  0.00  0.00     0.029 H 
ATOM     41  H16 <0> d           2.807   3.656  -1.841  0.00  0.00     0.029 H 
ENDBRANCH  37  38
BRANCH  37  42
ATOM     42  C15 <0> d           0.764   1.435  -3.506  0.00  0.00    -0.061 C 
ATOM     43  H17 <0> d           0.135   0.601  -3.193  0.00  0.00     0.029 H 
ATOM     44  H18 <0> d           0.144   2.205  -3.966  0.00  0.00     0.029 H 
ATOM     45  H19 <0> d           1.502   1.084  -4.227  0.00  0.00     0.029 H 
ENDBRANCH  37  42
BRANCH  37  46
ATOM     46  C16 <0> d           0.445   2.436  -1.239  0.00  0.00    -0.061 C 
ATOM     47  H20 <0> d           0.943   2.967  -0.428  0.00  0.00     0.029 H 
ATOM     48  H21 <0> d          -0.296   3.088  -1.700  0.00  0.00     0.029 H 
ATOM     49  H22 <0> d          -0.048   1.548  -0.842  0.00  0.00     0.029 H 
ENDBRANCH  37  46
ENDBRANCH   2  37
TORSDOF 12
