REMARK  12 active torsions:
REMARK  status: ('A' for Active; 'I' for Inactive)
REMARK    1  A    between atoms: C1_1  and  C2_2 
REMARK    2  A    between atoms: C2_2  and  C3_4 
REMARK    3  A    between atoms: C2_2  and  C14_18 
REMARK    4  A    between atoms: C3_4  and  N1_5 
REMARK    5  A    between atoms: N1_5  and  C4_6 
REMARK       I    between atoms: N1_5  and  C9_12 
REMARK    6  A    between atoms: C4_6  and  C5_7 
REMARK    7  A    between atoms: C9_12  and  C10_14 
REMARK    8  A    between atoms: C10_14  and  C11_15 
REMARK    9  A    between atoms: C10_14  and  C12_16 
REMARK   10  A    between atoms: C10_14  and  C13_17 
REMARK   11  A    between atoms: C14_18  and  O4_20 
REMARK   12  A    between atoms: O4_20  and  C15_21 
ROOT
ATOM      1  N1  <0> d           2.122  -0.652  -1.385  0.00  0.00    -0.345 N 
ATOM      2  C9  <0> d           2.309   0.682  -1.331  0.00  0.00     0.227 C 
ATOM      3  O2  <0> d           1.381   1.433  -1.543  0.00  0.00    -0.273 OA
ENDROOT
BRANCH   1   4
ATOM      4  C3  <0> d           0.817  -1.193  -1.770  0.00  0.00     0.010 C 
ATOM      5  H5  <0> d           0.959  -2.101  -2.357  0.00  0.00     0.065 H 
ATOM      6  H6  <0> d           0.280  -0.456  -2.367  0.00  0.00     0.065 H 
BRANCH   4   7
ATOM      7  C2  <0> d           0.008  -1.519  -0.513  0.00  0.00     0.042 C 
ATOM      8  H1  <0> d           0.579  -2.198   0.120  0.00  0.00     0.057 H 
BRANCH   7   9
ATOM      9  C1  <0> d          -0.284  -0.228   0.254  0.00  0.00    -0.063 C 
ATOM     10  H2  <0> d           0.650   0.188   0.634  0.00  0.00     0.028 H 
ATOM     11  H3  <0> d          -0.758   0.492  -0.413  0.00  0.00     0.028 H 
ATOM     12  H4  <0> d          -0.951  -0.444   1.089  0.00  0.00     0.028 H 
ENDBRANCH   7   9
BRANCH   7  13
ATOM     13  C14 <0> d          -1.291  -2.174  -0.907  0.00  0.00     0.263 C 
ATOM     14  O3  <0> d          -1.544  -2.360  -2.074  0.00  0.00    -0.265 OA
BRANCH  13  15
ATOM     15  O4  <0> d          -2.167  -2.549   0.038  0.00  0.00    -0.326 OA
BRANCH  15  16
ATOM     16  C15 <0> d          -3.378  -3.163  -0.408  0.00  0.00     0.013 C 
ATOM     17  H21 <0> d          -3.995  -3.417   0.454  0.00  0.00     0.067 H 
ATOM     18  H22 <0> d          -3.921  -2.472  -1.052  0.00  0.00     0.067 H 
ATOM     19  H23 <0> d          -3.142  -4.070  -0.965  0.00  0.00     0.067 H 
ENDBRANCH  15  16
ENDBRANCH  13  15
ENDBRANCH   7  13
ENDBRANCH   4   7
ENDBRANCH   1   4
BRANCH   1  20
ATOM     20  C4  <0> d           3.224  -1.560  -1.057  0.00  0.00     0.042 C 
ATOM     21  H7  <0> d           4.102  -0.979  -0.774  0.00  0.00     0.074 H 
ATOM     22  H8  <0> d           2.931  -2.203  -0.227  0.00  0.00     0.074 H 
BRANCH  20  23
ATOM     23  C5  <0> d           3.550  -2.408  -2.259  0.00  0.00     0.070 A 
ATOM     24  O1  <0> d           2.798  -3.412  -2.739  0.00  0.00    -0.325 OA
ATOM     25  C8  <0> d           3.394  -3.941  -3.820  0.00  0.00     0.019 A 
ATOM     26  C7  <0> d           4.546  -3.280  -4.036  0.00  0.00    -0.059 A 
ATOM     27  H11 <0> d           3.015  -4.760  -4.413  0.00  0.00     0.123 H 
ATOM     28  C6  <0> d           4.646  -2.292  -3.030  0.00  0.00    -0.051 A 
ATOM     29  H10 <0> d           5.257  -3.468  -4.827  0.00  0.00     0.086 H 
ATOM     30  H9  <0> d           5.449  -1.581  -2.905  0.00  0.00     0.087 H 
ENDBRANCH  20  23
ENDBRANCH   1  20
BRANCH   2  31
ATOM     31  C10 <0> d           3.671   1.239  -1.007  0.00  0.00     0.030 C 
BRANCH  31  32
ATOM     32  C11 <0> d           3.637   2.765  -1.115  0.00  0.00    -0.061 C 
ATOM     33  H12 <0> d           2.905   3.163  -0.411  0.00  0.00     0.029 H 
ATOM     34  H13 <0> d           4.622   3.168  -0.881  0.00  0.00     0.029 H 
ATOM     35  H14 <0> d           3.358   3.052  -2.129  0.00  0.00     0.029 H 
ENDBRANCH  31  32
BRANCH  31  36
ATOM     36  C12 <0> d           4.062   0.837   0.416  0.00  0.00    -0.061 C 
ATOM     37  H15 <0> d           4.187  -0.244   0.467  0.00  0.00     0.029 H 
ATOM     38  H16 <0> d           4.999   1.324   0.687  0.00  0.00     0.029 H 
ATOM     39  H17 <0> d           3.279   1.146   1.109  0.00  0.00     0.029 H 
ENDBRANCH  31  36
BRANCH  31  40
ATOM     40  C13 <0> d           4.698   0.681  -1.995  0.00  0.00    -0.061 C 
ATOM     41  H18 <0> d           4.502   1.083  -2.989  0.00  0.00     0.029 H 
ATOM     42  H19 <0> d           5.701   0.969  -1.678  0.00  0.00     0.029 H 
ATOM     43  H20 <0> d           4.624  -0.406  -2.021  0.00  0.00     0.029 H 
ENDBRANCH  31  40
ENDBRANCH   2  31
TORSDOF 12
