REMARK  7 active torsions:
REMARK  status: ('A' for Active; 'I' for Inactive)
REMARK    1  A    between atoms: C4_4  and  C7_7 
REMARK    2  A    between atoms: C7_7  and  O1_8 
REMARK    3  A    between atoms: O1_8  and  C8_9 
REMARK    4  A    between atoms: N1_17  and  C17_22 
REMARK    5  A    between atoms: C17_22  and  C18_23 
REMARK    6  A    between atoms: C18_23  and  C19_24 
REMARK    7  A    between atoms: C19_24  and  C20_25 
ROOT
ATOM      1  C8  <0> d           5.316  -1.604   1.466  0.00  0.00     0.085 A 
ATOM      2  C9  <0> d           6.048  -2.007   0.359  0.00  0.00    -0.050 A 
ATOM      3  C10 <0> d           7.244  -2.677   0.522  0.00  0.00    -0.080 A 
ATOM      4  C11 <0> d           7.725  -2.951   1.793  0.00  0.00    -0.073 A 
ATOM      5  C12 <0> d           7.011  -2.558   2.900  0.00  0.00    -0.003 A 
ATOM      6  C13 <0> d           5.801  -1.873   2.753  0.00  0.00     0.074 A 
ATOM      7  C14 <0> d           5.272  -1.577   4.095  0.00  0.00     0.258 A 
ATOM      8  O2  <0> d           4.229  -0.993   4.317  0.00  0.00    -0.267 OA
ATOM      9  N1  <0> d           6.107  -2.043   5.040  0.00  0.00    -0.327 N 
ATOM     10  C15 <0> d           7.245  -2.696   4.383  0.00  0.00     0.125 A 
ATOM     11  H1  <0> d           7.296  -3.749   4.658  0.00  0.00     0.104 H 
ATOM     12  C16 <0> d           8.492  -2.012   4.765  0.00  0.00     0.089 C 
ATOM     13  N2  <0> d           9.454  -1.484   5.059  0.00  0.00    -0.195 NA
ATOM     14  H9  <0> d           5.680  -1.797  -0.635  0.00  0.00     0.087 H 
ATOM     15  H10 <0> d           7.808  -2.989  -0.345  0.00  0.00     0.083 H 
ATOM     16  H11 <0> d           8.661  -3.475   1.914  0.00  0.00     0.084 H 
ENDROOT
BRANCH   9  17
ATOM     17  C17 <0> d           5.906  -1.930   6.487  0.00  0.00     0.000 C 
ATOM     18  H12 <0> d           6.875  -1.882   6.985  0.00  0.00     0.064 H 
ATOM     19  H13 <0> d           5.340  -1.024   6.705  0.00  0.00     0.064 H 
BRANCH  17  20
ATOM     20  C18 <0> d           5.132  -3.149   6.992  0.00  0.00    -0.041 C 
ATOM     21  H14 <0> d           4.164  -3.197   6.493  0.00  0.00     0.036 H 
ATOM     22  H15 <0> d           5.698  -4.055   6.773  0.00  0.00     0.036 H 
BRANCH  20  23
ATOM     23  C19 <0> d           4.923  -3.030   8.503  0.00  0.00     0.017 C 
ATOM     24  H16 <0> d           5.891  -2.983   9.001  0.00  0.00     0.049 H 
ATOM     25  H17 <0> d           4.357  -2.125   8.721  0.00  0.00     0.049 H 
BRANCH  23  26
ATOM     26  C20 <0> d           4.161  -4.231   9.000  0.00  0.00     0.172 C 
ATOM     27  O3  <0> d           3.817  -5.102   8.219  0.00  0.00    -0.648 OA
ATOM     28  O4  <0> d           3.888  -4.333  10.184  0.00  0.00    -0.648 OA
ENDBRANCH  23  26
ENDBRANCH  20  23
ENDBRANCH  17  20
ENDBRANCH   9  17
BRANCH   1  29
ATOM     29  O1  <0> d           4.141  -0.946   1.304  0.00  0.00    -0.346 OA
BRANCH  29  30
ATOM     30  C7  <0> d           3.711  -0.707  -0.038  0.00  0.00     0.050 C 
ATOM     31  H7  <0> d           3.588  -1.659  -0.555  0.00  0.00     0.082 H 
ATOM     32  H8  <0> d           4.457  -0.105  -0.556  0.00  0.00     0.082 H 
BRANCH  30  33
ATOM     33  C4  <0> d           2.396   0.029  -0.020  0.00  0.00    -0.034 A 
ATOM     34  C3  <0> d           2.377   1.411  -0.013  0.00  0.00    -0.075 A 
ATOM     35  C2  <0> d           1.171   2.086   0.002  0.00  0.00    -0.082 A 
ATOM     36  H4  <0> d           3.305   1.963  -0.020  0.00  0.00     0.084 H 
ATOM     37  C1  <0> d          -0.017   1.378   0.010  0.00  0.00    -0.083 A 
ATOM     38  H3  <0> d           1.156   3.165   0.008  0.00  0.00     0.083 H 
ATOM     39  C6  <0> d           0.002  -0.004   0.002  0.00  0.00    -0.082 A 
ATOM     40  H2  <0> d          -0.959   1.905   0.026  0.00  0.00     0.083 H 
ATOM     41  C5  <0> d           1.208  -0.679  -0.012  0.00  0.00    -0.075 A 
ATOM     42  H6  <0> d          -0.926  -0.557   0.008  0.00  0.00     0.083 H 
ATOM     43  H5  <0> d           1.223  -1.759  -0.018  0.00  0.00     0.084 H 
ENDBRANCH  30  33
ENDBRANCH  29  30
ENDBRANCH   1  29
TORSDOF 7
