REMARK  4 active torsions:
REMARK  status: ('A' for Active; 'I' for Inactive)
REMARK    1  A    between atoms: C1_1  and  N1_2 
REMARK    2  A    between atoms: C7_9  and  O2_13 
REMARK    3  A    between atoms: O2_13  and  C10_14 
REMARK    4  A    between atoms: C10_14  and  C11_15 
ROOT
ATOM      1  N1  <0> d           0.002  -0.004   0.002  0.00  0.00    -0.331 N 
ATOM      2  C2  <0> d          -1.179  -0.875   0.003  0.00  0.00     0.124 A 
ATOM      3  H1  <0> d          -1.772  -0.701   0.900  0.00  0.00     0.104 H 
ATOM      4  C3  <0> d          -0.658  -2.291  -0.008  0.00  0.00    -0.003 A 
ATOM      5  C4  <0> d          -1.272  -3.520  -0.013  0.00  0.00    -0.073 A 
ATOM      6  C5  <0> d          -0.510  -4.678  -0.023  0.00  0.00    -0.080 A 
ATOM      7  C6  <0> d           0.869  -4.605  -0.029  0.00  0.00    -0.050 A 
ATOM      8  C7  <0> d           1.503  -3.371  -0.025  0.00  0.00     0.085 A 
ATOM      9  C8  <0> d           0.737  -2.197  -0.015  0.00  0.00     0.074 A 
ATOM     10  C9  <0> d           1.105  -0.772  -0.013  0.00  0.00     0.258 A 
ATOM     11  O1  <0> d           2.245  -0.350  -0.022  0.00  0.00    -0.267 OA
ATOM     12  C17 <0> d          -1.993  -0.625  -1.198  0.00  0.00     0.089 C 
ATOM     13  N2  <0> d          -2.621  -0.431  -2.124  0.00  0.00    -0.195 NA
ATOM     14  H5  <0> d          -2.350  -3.584  -0.008  0.00  0.00     0.084 H 
ATOM     15  H6  <0> d          -0.998  -5.642  -0.025  0.00  0.00     0.083 H 
ATOM     16  H7  <0> d           1.456  -5.511  -0.037  0.00  0.00     0.087 H 
ENDROOT
BRANCH   1  17
ATOM     17  C1  <0> d          -0.018   1.461   0.010  0.00  0.00    -0.014 C 
ATOM     18  H2  <0> d           1.005   1.838   0.002  0.00  0.00     0.056 H 
ATOM     19  H3  <0> d          -0.545   1.822  -0.873  0.00  0.00     0.056 H 
ATOM     20  H4  <0> d          -0.528   1.812   0.907  0.00  0.00     0.056 H 
ENDBRANCH   1  17
BRANCH   8  21
ATOM     21  O2  <0> d           2.857  -3.301  -0.031  0.00  0.00    -0.346 OA
BRANCH  21  22
ATOM     22  C10 <0> d           3.571  -4.539  -0.041  0.00  0.00     0.050 C 
ATOM     23  H8  <0> d           3.311  -5.115   0.847  0.00  0.00     0.082 H 
ATOM     24  H9  <0> d           3.303  -5.106  -0.933  0.00  0.00     0.082 H 
BRANCH  22  25
ATOM     25  C11 <0> d           5.053  -4.265  -0.047  0.00  0.00    -0.034 A 
ATOM     26  C16 <0> d           5.738  -4.146   1.148  0.00  0.00    -0.075 A 
ATOM     27  C15 <0> d           7.098  -3.898   1.143  0.00  0.00    -0.082 A 
ATOM     28  H14 <0> d           5.211  -4.249   2.085  0.00  0.00     0.084 H 
ATOM     29  C14 <0> d           7.771  -3.761  -0.057  0.00  0.00    -0.083 A 
ATOM     30  H13 <0> d           7.634  -3.809   2.076  0.00  0.00     0.083 H 
ATOM     31  C13 <0> d           7.085  -3.876  -1.251  0.00  0.00    -0.082 A 
ATOM     32  H12 <0> d           8.833  -3.566  -0.060  0.00  0.00     0.083 H 
ATOM     33  C12 <0> d           5.726  -4.127  -1.246  0.00  0.00    -0.075 A 
ATOM     34  H11 <0> d           7.611  -3.768  -2.188  0.00  0.00     0.083 H 
ATOM     35  H10 <0> d           5.190  -4.216  -2.180  0.00  0.00     0.084 H 
ENDBRANCH  22  25
ENDBRANCH  21  22
ENDBRANCH   8  21
TORSDOF 4
