REMARK  8 active torsions:
REMARK  status: ('A' for Active; 'I' for Inactive)
REMARK    1  A    between atoms: C1_1  and  C2_2 
REMARK    2  A    between atoms: C2_2  and  O1_3 
REMARK    3  A    between atoms: O1_3  and  C3_4 
REMARK    4  A    between atoms: C3_4  and  C4_6 
REMARK    5  A    between atoms: C4_6  and  C5_7 
REMARK    6  A    between atoms: C5_7  and  N1_8 
REMARK    7  A    between atoms: N1_8  and  C6_9 
REMARK       I    between atoms: N1_8  and  C11_14 
REMARK    8  A    between atoms: C11_14  and  C12_16 
ROOT
ATOM      1  N1  <0> d          -4.016  -5.249   0.118  0.00  0.00    -0.343 N 
ATOM      2  C11 <0> d          -4.666  -4.852   1.230  0.00  0.00     0.257 C 
ATOM      3  O3  <0> d          -5.874  -4.717   1.212  0.00  0.00    -0.267 OA
ENDROOT
BRANCH   1   4
ATOM      4  C5  <0> d          -2.565  -5.449   0.150  0.00  0.00     0.007 C 
ATOM      5  H8  <0> d          -2.324  -6.428  -0.264  0.00  0.00     0.065 H 
ATOM      6  H9  <0> d          -2.213  -5.394   1.180  0.00  0.00     0.065 H 
BRANCH   4   7
ATOM      7  C4  <0> d          -1.882  -4.362  -0.682  0.00  0.00     0.031 C 
ATOM      8  H6  <0> d          -2.123  -3.382  -0.268  0.00  0.00     0.050 H 
ATOM      9  H7  <0> d          -2.234  -4.417  -1.712  0.00  0.00     0.050 H 
BRANCH   7  10
ATOM     10  C3  <0> d          -0.389  -4.567  -0.650  0.00  0.00     0.260 C 
ATOM     11  O2  <0> d           0.080  -5.489  -0.025  0.00  0.00    -0.265 OA
BRANCH  10  12
ATOM     12  O1  <0> d           0.419  -3.726  -1.314  0.00  0.00    -0.322 OA
BRANCH  12  13
ATOM     13  C2  <0> d           1.823  -3.981  -1.240  0.00  0.00     0.025 C 
ATOM     14  H4  <0> d           2.034  -4.971  -1.644  0.00  0.00     0.074 H 
ATOM     15  H5  <0> d           2.145  -3.936  -0.200  0.00  0.00     0.074 H 
BRANCH  13  16
ATOM     16  C1  <0> d           2.576  -2.927  -2.053  0.00  0.00    -0.056 C 
ATOM     17  H1  <0> d           3.647  -3.121  -1.996  0.00  0.00     0.030 H 
ATOM     18  H2  <0> d           2.253  -2.971  -3.093  0.00  0.00     0.030 H 
ATOM     19  H3  <0> d           2.365  -1.937  -1.649  0.00  0.00     0.030 H 
ENDBRANCH  13  16
ENDBRANCH  12  13
ENDBRANCH  10  12
ENDBRANCH   7  10
ENDBRANCH   4   7
ENDBRANCH   1   4
BRANCH   1  20
ATOM     20  C6  <0> d          -4.760  -5.481  -1.122  0.00  0.00     0.015 C 
ATOM     21  C10 <0> d          -5.865  -6.525  -0.886  0.00  0.00    -0.046 C 
ATOM     22  C9  <0> d          -7.206  -5.825  -1.194  0.00  0.00    -0.063 C 
ATOM     23  H17 <0> d          -5.726  -7.374  -1.555  0.00  0.00     0.036 H 
ATOM     24  H18 <0> d          -5.848  -6.860   0.151  0.00  0.00     0.036 H 
ATOM     25  C8  <0> d          -6.819  -4.666  -2.145  0.00  0.00    -0.063 C 
ATOM     26  H15 <0> d          -7.651  -5.436  -0.278  0.00  0.00     0.033 H 
ATOM     27  H16 <0> d          -7.891  -6.514  -1.689  0.00  0.00     0.033 H 
ATOM     28  C7  <0> d          -5.467  -4.183  -1.564  0.00  0.00    -0.046 C 
ATOM     29  H13 <0> d          -7.563  -3.870  -2.106  0.00  0.00     0.033 H 
ATOM     30  H14 <0> d          -6.694  -5.029  -3.165  0.00  0.00     0.033 H 
ATOM     31  H11 <0> d          -5.632  -3.528  -0.709  0.00  0.00     0.036 H 
ATOM     32  H12 <0> d          -4.884  -3.672  -2.330  0.00  0.00     0.036 H 
ATOM     33  H10 <0> d          -4.084  -5.824  -1.905  0.00  0.00     0.072 H 
ENDBRANCH   1  20
BRANCH   2  34
ATOM     34  C12 <0> d          -3.911  -4.582   2.469  0.00  0.00     0.074 A 
ATOM     35  C17 <0> d          -4.497  -4.827   3.716  0.00  0.00     0.173 A 
ATOM     36  C16 <0> d          -3.780  -4.576   4.873  0.00  0.00     0.194 A 
ATOM     37  F1  <0> d          -5.755  -5.312   3.789  0.00  0.00    -0.202 F 
ATOM     38  C15 <0> d          -2.491  -4.073   4.796  0.00  0.00     0.158 A 
ATOM     39  F2  <0> d          -4.340  -4.816   6.079  0.00  0.00    -0.200 F 
ATOM     40  C14 <0> d          -1.910  -3.824   3.561  0.00  0.00    -0.041 A 
ATOM     41  F3  <0> d          -1.797  -3.824   5.928  0.00  0.00    -0.203 F 
ATOM     42  C13 <0> d          -2.611  -4.075   2.402  0.00  0.00    -0.062 A 
ATOM     43  H20 <0> d          -0.904  -3.433   3.508  0.00  0.00     0.088 H 
ATOM     44  H19 <0> d          -2.155  -3.881   1.442  0.00  0.00     0.085 H 
ENDBRANCH   2  34
TORSDOF 8
