REMARK  12 active torsions:
REMARK  status: ('A' for Active; 'I' for Inactive)
REMARK    1  A    between atoms: C1_1  and  C2_2 
REMARK    2  A    between atoms: C2_2  and  C3_4 
REMARK    3  A    between atoms: C2_2  and  C15_19 
REMARK    4  A    between atoms: C3_4  and  N1_5 
REMARK    5  A    between atoms: N1_5  and  C4_6 
REMARK       I    between atoms: N1_5  and  C10_13 
REMARK    6  A    between atoms: C4_6  and  C5_7 
REMARK    7  A    between atoms: C10_13  and  C11_15 
REMARK    8  A    between atoms: C11_15  and  C12_16 
REMARK    9  A    between atoms: C11_15  and  C13_17 
REMARK   10  A    between atoms: C11_15  and  C14_18 
REMARK   11  A    between atoms: C15_19  and  O3_21 
REMARK   12  A    between atoms: O3_21  and  C16_22 
ROOT
ATOM      1  N1  <0> d          -0.893   0.057  -2.560  0.00  0.00    -0.346 N 
ATOM      2  C10 <0> d          -1.463  -1.121  -2.884  0.00  0.00     0.227 C 
ATOM      3  O1  <0> d          -2.046  -1.242  -3.940  0.00  0.00    -0.273 OA
ENDROOT
BRANCH   1   4
ATOM      4  C3  <0> d          -0.144   0.188  -1.308  0.00  0.00     0.009 C 
ATOM      5  H5  <0> d           0.714   0.843  -1.464  0.00  0.00     0.065 H 
ATOM      6  H6  <0> d           0.202  -0.794  -0.986  0.00  0.00     0.065 H 
BRANCH   4   7
ATOM      7  C2  <0> d          -1.052   0.786  -0.231  0.00  0.00     0.042 C 
ATOM      8  H1  <0> d          -1.936   0.160  -0.113  0.00  0.00     0.057 H 
BRANCH   7   9
ATOM      9  C1  <0> d          -1.477   2.196  -0.647  0.00  0.00    -0.063 C 
ATOM     10  H2  <0> d          -0.593   2.822  -0.766  0.00  0.00     0.028 H 
ATOM     11  H3  <0> d          -2.018   2.148  -1.593  0.00  0.00     0.028 H 
ATOM     12  H4  <0> d          -2.124   2.622   0.120  0.00  0.00     0.028 H 
ENDBRANCH   7   9
BRANCH   7  13
ATOM     13  C15 <0> d          -0.305   0.853   1.076  0.00  0.00     0.263 C 
ATOM     14  O2  <0> d           0.837   0.462   1.140  0.00  0.00    -0.265 OA
BRANCH  13  15
ATOM     15  O3  <0> d          -0.907   1.346   2.170  0.00  0.00    -0.326 OA
BRANCH  15  16
ATOM     16  C16 <0> d          -0.140   1.379   3.374  0.00  0.00     0.013 C 
ATOM     17  H22 <0> d          -0.744   1.799   4.179  0.00  0.00     0.067 H 
ATOM     18  H23 <0> d           0.164   0.366   3.639  0.00  0.00     0.067 H 
ATOM     19  H24 <0> d           0.746   1.996   3.224  0.00  0.00     0.067 H 
ENDBRANCH  15  16
ENDBRANCH  13  15
ENDBRANCH   7  13
ENDBRANCH   4   7
ENDBRANCH   1   4
BRANCH   1  20
ATOM     20  C4  <0> d          -1.022   1.206  -3.460  0.00  0.00     0.023 C 
ATOM     21  H7  <0> d          -1.964   1.137  -4.004  0.00  0.00     0.071 H 
ATOM     22  H8  <0> d          -1.004   2.127  -2.878  0.00  0.00     0.071 H 
BRANCH  20  23
ATOM     23  C5  <0> d           0.124   1.208  -4.439  0.00  0.00    -0.023 A 
ATOM     24  C9  <0> d           0.013   0.546  -5.647  0.00  0.00     0.009 A 
ATOM     25  N2  <0> d           1.009   0.548  -6.511  0.00  0.00    -0.273 NA
ATOM     26  H12 <0> d          -0.902   0.024  -5.888  0.00  0.00     0.115 H 
ATOM     27  C8  <0> d           2.146   1.166  -6.258  0.00  0.00     0.002 A 
ATOM     28  C7  <0> d           2.332   1.844  -5.067  0.00  0.00    -0.065 A 
ATOM     29  H11 <0> d           2.941   1.142  -6.988  0.00  0.00     0.114 H 
ATOM     30  C6  <0> d           1.304   1.869  -4.137  0.00  0.00    -0.072 A 
ATOM     31  H10 <0> d           3.265   2.349  -4.865  0.00  0.00     0.085 H 
ATOM     32  H9  <0> d           1.421   2.391  -3.199  0.00  0.00     0.084 H 
ENDBRANCH  20  23
ENDBRANCH   1  20
BRANCH   2  33
ATOM     33  C11 <0> d          -1.376  -2.287  -1.933  0.00  0.00     0.030 C 
BRANCH  33  34
ATOM     34  C12 <0> d          -2.298  -3.408  -2.416  0.00  0.00    -0.061 C 
ATOM     35  H13 <0> d          -1.991  -3.728  -3.412  0.00  0.00     0.029 H 
ATOM     36  H14 <0> d          -2.235  -4.252  -1.729  0.00  0.00     0.029 H 
ATOM     37  H15 <0> d          -3.325  -3.045  -2.452  0.00  0.00     0.029 H 
ENDBRANCH  33  34
BRANCH  33  38
ATOM     38  C13 <0> d           0.066  -2.797  -1.883  0.00  0.00    -0.061 C 
ATOM     39  H16 <0> d           0.714  -2.016  -1.488  0.00  0.00     0.029 H 
ATOM     40  H17 <0> d           0.118  -3.675  -1.238  0.00  0.00     0.029 H 
ATOM     41  H18 <0> d           0.391  -3.065  -2.889  0.00  0.00     0.029 H 
ENDBRANCH  33  38
BRANCH  33  42
ATOM     42  C14 <0> d          -1.807  -1.839  -0.535  0.00  0.00    -0.061 C 
ATOM     43  H19 <0> d          -2.730  -1.264  -0.607  0.00  0.00     0.029 H 
ATOM     44  H20 <0> d          -1.971  -2.714   0.092  0.00  0.00     0.029 H 
ATOM     45  H21 <0> d          -1.026  -1.218  -0.096  0.00  0.00     0.029 H 
ENDBRANCH  33  42
ENDBRANCH   2  33
TORSDOF 12
