REMARK  10 active torsions:
REMARK  status: ('A' for Active; 'I' for Inactive)
REMARK    1  A    between atoms: C1_1  and  C2_2 
REMARK    2  A    between atoms: C2_2  and  C3_4 
REMARK    3  A    between atoms: C2_2  and  C12_16 
REMARK    4  A    between atoms: C3_4  and  N1_5 
REMARK    5  A    between atoms: N1_5  and  C4_6 
REMARK       I    between atoms: N1_5  and  C9_11 
REMARK    6  A    between atoms: C9_11  and  C10_13 
REMARK    7  A    between atoms: C10_13  and  O2_14 
REMARK    8  A    between atoms: O2_14  and  C11_15 
REMARK    9  A    between atoms: C12_16  and  O4_18 
REMARK   10  A    between atoms: O4_18  and  C13_19 
ROOT
ATOM      1  N1  <0> d          -2.141  -0.050  -1.173  0.00  0.00    -0.345 N 
ATOM      2  C9  <0> d          -2.504   1.248  -1.165  0.00  0.00     0.243 C 
ATOM      3  O1  <0> d          -2.497   1.873  -0.126  0.00  0.00    -0.271 OA
ENDROOT
BRANCH   1   4
ATOM      4  C3  <0> d          -1.611  -0.670   0.044  0.00  0.00     0.010 C 
ATOM      5  H5  <0> d          -1.770  -1.747   0.003  0.00  0.00     0.065 H 
ATOM      6  H6  <0> d          -2.124  -0.260   0.914  0.00  0.00     0.065 H 
BRANCH   4   7
ATOM      7  C2  <0> d          -0.112  -0.380   0.152  0.00  0.00     0.042 C 
ATOM      8  H1  <0> d           0.385  -0.691  -0.766  0.00  0.00     0.057 H 
BRANCH   7   9
ATOM      9  C1  <0> d           0.103   1.119   0.367  0.00  0.00    -0.063 C 
ATOM     10  H2  <0> d           1.171   1.326   0.444  0.00  0.00     0.028 H 
ATOM     11  H3  <0> d          -0.314   1.671  -0.476  0.00  0.00     0.028 H 
ATOM     12  H4  <0> d          -0.394   1.430   1.286  0.00  0.00     0.028 H 
ENDBRANCH   7   9
BRANCH   7  13
ATOM     13  C12 <0> d           0.464  -1.142   1.318  0.00  0.00     0.263 C 
ATOM     14  O3  <0> d          -0.251  -1.845   1.993  0.00  0.00    -0.265 OA
BRANCH  13  15
ATOM     15  O4  <0> d           1.771  -1.040   1.606  0.00  0.00    -0.326 OA
BRANCH  15  16
ATOM     16  C13 <0> d           2.249  -1.790   2.725  0.00  0.00     0.013 C 
ATOM     17  H21 <0> d           1.725  -1.473   3.626  0.00  0.00     0.067 H 
ATOM     18  H22 <0> d           2.069  -2.852   2.554  0.00  0.00     0.067 H 
ATOM     19  H23 <0> d           3.318  -1.619   2.847  0.00  0.00     0.067 H 
ENDBRANCH  15  16
ENDBRANCH  13  15
ENDBRANCH   7  13
ENDBRANCH   4   7
ENDBRANCH   1   4
BRANCH   1  20
ATOM     20  C4  <0> d          -2.277  -0.842  -2.398  0.00  0.00     0.015 C 
ATOM     21  C8  <0> d          -0.888  -1.252  -2.917  0.00  0.00    -0.046 C 
ATOM     22  C7  <0> d          -0.856  -2.795  -2.917  0.00  0.00    -0.063 C 
ATOM     23  H14 <0> d          -0.741  -0.876  -3.929  0.00  0.00     0.036 H 
ATOM     24  H15 <0> d          -0.113  -0.863  -2.257  0.00  0.00     0.036 H 
ATOM     25  C6  <0> d          -2.347  -3.206  -2.996  0.00  0.00    -0.063 C 
ATOM     26  H12 <0> d          -0.405  -3.167  -1.997  0.00  0.00     0.033 H 
ATOM     27  H13 <0> d          -0.311  -3.165  -3.786  0.00  0.00     0.033 H 
ATOM     28  C5  <0> d          -3.040  -2.149  -2.101  0.00  0.00    -0.046 C 
ATOM     29  H10 <0> d          -2.493  -4.208  -2.594  0.00  0.00     0.033 H 
ATOM     30  H11 <0> d          -2.711  -3.143  -4.021  0.00  0.00     0.033 H 
ATOM     31  H8  <0> d          -2.943  -2.417  -1.049  0.00  0.00     0.036 H 
ATOM     32  H9  <0> d          -4.091  -2.048  -2.374  0.00  0.00     0.036 H 
ATOM     33  H7  <0> d          -2.804  -0.265  -3.158  0.00  0.00     0.072 H 
ENDBRANCH   1  20
BRANCH   2  34
ATOM     34  C10 <0> d          -2.920   1.921  -2.447  0.00  0.00     0.092 C 
ATOM     35  H16 <0> d          -2.131   1.805  -3.191  0.00  0.00     0.088 H 
ATOM     36  H17 <0> d          -3.838   1.465  -2.817  0.00  0.00     0.088 H 
BRANCH  34  37
ATOM     37  O2  <0> d          -3.144   3.312  -2.204  0.00  0.00    -0.387 OA
BRANCH  37  38
ATOM     38  C11 <0> d          -3.544   4.047  -3.362  0.00  0.00     0.005 C 
ATOM     39  H18 <0> d          -2.769   3.975  -4.125  0.00  0.00     0.066 H 
ATOM     40  H19 <0> d          -4.475   3.635  -3.751  0.00  0.00     0.066 H 
ATOM     41  H20 <0> d          -3.694   5.093  -3.094  0.00  0.00     0.066 H 
ENDBRANCH  37  38
ENDBRANCH  34  37
ENDBRANCH   2  34
TORSDOF 10
