REMARK  8 active torsions:
REMARK  status: ('A' for Active; 'I' for Inactive)
REMARK    1  A    between atoms: C1_1  and  O1_2 
REMARK    2  A    between atoms: O1_2  and  C2_3 
REMARK    3  A    between atoms: C2_3  and  C3_5 
REMARK    4  A    between atoms: C3_5  and  C4_6 
REMARK    5  A    between atoms: C4_6  and  N1_7 
REMARK    6  A    between atoms: N1_7  and  C5_8 
REMARK       I    between atoms: N1_7  and  C10_15 
REMARK    7  A    between atoms: C5_8  and  C6_9 
REMARK    8  A    between atoms: C10_15  and  C11_17 
ROOT
ATOM      1  N1  <0> d           1.422  -3.838  -2.560  0.00  0.00    -0.345 N 
ATOM      2  C10 <0> d           2.473  -4.597  -2.192  0.00  0.00     0.257 C 
ATOM      3  O4  <0> d           3.346  -4.126  -1.490  0.00  0.00    -0.267 OA
ENDROOT
BRANCH   1   4
ATOM      4  C4  <0> d           1.380  -2.420  -2.199  0.00  0.00     0.006 C 
ATOM      5  H7  <0> d           0.822  -1.868  -2.955  0.00  0.00     0.065 H 
ATOM      6  H8  <0> d           2.396  -2.029  -2.140  0.00  0.00     0.065 H 
BRANCH   4   7
ATOM      7  C3  <0> d           0.693  -2.260  -0.841  0.00  0.00     0.031 C 
ATOM      8  H5  <0> d           1.252  -2.811  -0.084  0.00  0.00     0.050 H 
ATOM      9  H6  <0> d          -0.323  -2.650  -0.899  0.00  0.00     0.050 H 
BRANCH   7  10
ATOM     10  C2  <0> d           0.650  -0.800  -0.469  0.00  0.00     0.259 C 
ATOM     11  O2  <0> d           1.121   0.028  -1.213  0.00  0.00    -0.265 OA
BRANCH  10  12
ATOM     12  O1  <0> d           0.090  -0.419   0.690  0.00  0.00    -0.326 OA
BRANCH  12  13
ATOM     13  C1  <0> d           0.084   0.981   0.979  0.00  0.00     0.013 C 
ATOM     14  H2  <0> d           1.109   1.349   1.014  0.00  0.00     0.067 H 
ATOM     15  H3  <0> d          -0.465   1.510   0.200  0.00  0.00     0.067 H 
ATOM     16  H4  <0> d          -0.397   1.151   1.942  0.00  0.00     0.067 H 
ENDBRANCH  12  13
ENDBRANCH  10  12
ENDBRANCH   7  10
ENDBRANCH   4   7
ENDBRANCH   1   4
BRANCH   1  17
ATOM     17  C5  <0> d           0.321  -4.433  -3.322  0.00  0.00     0.022 C 
ATOM     18  H9  <0> d           0.155  -5.456  -2.983  0.00  0.00     0.068 H 
ATOM     19  H10 <0> d          -0.586  -3.848  -3.167  0.00  0.00     0.068 H 
BRANCH  17  20
ATOM     20  C6  <0> d           0.675  -4.440  -4.810  0.00  0.00     0.054 C 
ATOM     21  H1  <0> d           1.588  -5.012  -4.979  0.00  0.00     0.085 H 
ATOM     22  O3  <0> d           0.834  -3.096  -5.292  0.00  0.00    -0.384 OA
ATOM     23  C9  <0> d           0.327  -2.993  -6.629  0.00  0.00     0.020 C 
ATOM     24  C8  <0> d          -0.236  -4.376  -7.022  0.00  0.00    -0.043 C 
ATOM     25  H15 <0> d           1.133  -2.715  -7.308  0.00  0.00     0.074 H 
ATOM     26  H16 <0> d          -0.466  -2.247  -6.668  0.00  0.00     0.074 H 
ATOM     27  C7  <0> d          -0.492  -5.034  -5.639  0.00  0.00    -0.037 C 
ATOM     28  H13 <0> d           0.498  -4.946  -7.593  0.00  0.00     0.036 H 
ATOM     29  H14 <0> d          -1.166  -4.272  -7.580  0.00  0.00     0.036 H 
ATOM     30  H11 <0> d          -0.418  -6.119  -5.700  0.00  0.00     0.036 H 
ATOM     31  H12 <0> d          -1.456  -4.730  -5.232  0.00  0.00     0.036 H 
ENDBRANCH  17  20
ENDBRANCH   1  17
BRANCH   2  32
ATOM     32  C11 <0> d           2.565  -6.000  -2.643  0.00  0.00     0.074 A 
ATOM     33  C16 <0> d           3.664  -6.425  -3.396  0.00  0.00     0.173 A 
ATOM     34  C15 <0> d           3.745  -7.743  -3.810  0.00  0.00     0.194 A 
ATOM     35  F1  <0> d           4.646  -5.553  -3.714  0.00  0.00    -0.202 F 
ATOM     36  C14 <0> d           2.734  -8.635  -3.488  0.00  0.00     0.158 A 
ATOM     37  F2  <0> d           4.807  -8.159  -4.534  0.00  0.00    -0.200 F 
ATOM     38  C13 <0> d           1.640  -8.215  -2.745  0.00  0.00    -0.041 A 
ATOM     39  F3  <0> d           2.814  -9.920  -3.898  0.00  0.00    -0.203 F 
ATOM     40  C12 <0> d           1.551  -6.907  -2.322  0.00  0.00    -0.062 A 
ATOM     41  H18 <0> d           0.857  -8.915  -2.497  0.00  0.00     0.088 H 
ATOM     42  H17 <0> d           0.699  -6.582  -1.744  0.00  0.00     0.085 H 
ENDBRANCH   2  32
TORSDOF 8
