REMARK  10 active torsions:
REMARK  status: ('A' for Active; 'I' for Inactive)
REMARK    1  A    between atoms: C1_1  and  C2_2 
REMARK    2  A    between atoms: C2_2  and  C3_4 
REMARK    3  A    between atoms: C2_2  and  O4_23 
REMARK    4  A    between atoms: C3_4  and  N1_5 
REMARK    5  A    between atoms: N1_5  and  C4_6 
REMARK       I    between atoms: N1_5  and  C8_12 
REMARK    6  A    between atoms: C4_6  and  C5_7 
REMARK    7  A    between atoms: C5_7  and  C6_8 
REMARK    8  A    between atoms: C6_8  and  O2_10 
REMARK    9  A    between atoms: O2_10  and  C7_11 
REMARK   10  A    between atoms: C8_12  and  C9_14 
ROOT
ATOM      1  N1  <0> d           0.802  -1.970   1.299  0.00  0.00    -0.345 N 
ATOM      2  C8  <0> d          -0.178  -2.666   1.908  0.00  0.00     0.257 C 
ATOM      3  O3  <0> d          -1.131  -2.082   2.389  0.00  0.00    -0.267 OA
ENDROOT
BRANCH   1   4
ATOM      4  C3  <0> d           0.771  -0.505   1.304  0.00  0.00     0.021 C 
ATOM      5  H5  <0> d           1.790  -0.121   1.349  0.00  0.00     0.068 H 
ATOM      6  H6  <0> d           0.213  -0.156   2.173  0.00  0.00     0.068 H 
BRANCH   4   7
ATOM      7  C2  <0> d           0.093  -0.005   0.027  0.00  0.00     0.047 C 
ATOM      8  H1  <0> d          -0.926  -0.389  -0.017  0.00  0.00     0.084 H 
BRANCH   7   9
ATOM      9  C1  <0> d           0.061   1.525   0.032  0.00  0.00    -0.051 C 
ATOM     10  H2  <0> d           1.080   1.909   0.077  0.00  0.00     0.030 H 
ATOM     11  H3  <0> d          -0.422   1.881  -0.877  0.00  0.00     0.030 H 
ATOM     12  H4  <0> d          -0.497   1.874   0.901  0.00  0.00     0.030 H 
ENDBRANCH   7   9
BRANCH   7  13
ATOM     13  O4  <0> d           0.825  -0.462  -1.111  0.00  0.00    -0.394 OA
ATOM     14  H16 <0> d           1.742  -0.158  -1.138  0.00  0.00     0.210 HD
ENDBRANCH   7  13
ENDBRANCH   4   7
ENDBRANCH   1   4
BRANCH   1  15
ATOM     15  C4  <0> d           1.897  -2.677   0.633  0.00  0.00     0.006 C 
ATOM     16  H7  <0> d           1.537  -3.636   0.260  0.00  0.00     0.065 H 
ATOM     17  H8  <0> d           2.263  -2.078  -0.201  0.00  0.00     0.065 H 
BRANCH  15  18
ATOM     18  C5  <0> d           3.034  -2.912   1.629  0.00  0.00     0.031 C 
ATOM     19  H9  <0> d           3.394  -1.953   2.002  0.00  0.00     0.050 H 
ATOM     20  H10 <0> d           2.668  -3.512   2.463  0.00  0.00     0.050 H 
BRANCH  18  21
ATOM     21  C6  <0> d           4.161  -3.640   0.944  0.00  0.00     0.259 C 
ATOM     22  O1  <0> d           4.065  -3.940  -0.223  0.00  0.00    -0.265 OA
BRANCH  21  23
ATOM     23  O2  <0> d           5.272  -3.955   1.628  0.00  0.00    -0.326 OA
BRANCH  23  24
ATOM     24  C7  <0> d           6.300  -4.645   0.915  0.00  0.00     0.013 C 
ATOM     25  H11 <0> d           5.910  -5.591   0.539  0.00  0.00     0.067 H 
ATOM     26  H12 <0> d           6.636  -4.032   0.078  0.00  0.00     0.067 H 
ATOM     27  H13 <0> d           7.139  -4.838   1.584  0.00  0.00     0.067 H 
ENDBRANCH  23  24
ENDBRANCH  21  23
ENDBRANCH  18  21
ENDBRANCH  15  18
ENDBRANCH   1  15
BRANCH   2  28
ATOM     28  C9  <0> d          -0.096  -4.137   1.992  0.00  0.00     0.074 A 
ATOM     29  C14 <0> d          -0.094  -4.770   3.239  0.00  0.00     0.173 A 
ATOM     30  C13 <0> d          -0.022  -6.151   3.310  0.00  0.00     0.194 A 
ATOM     31  F1  <0> d          -0.169  -4.037   4.372  0.00  0.00    -0.202 F 
ATOM     32  C12 <0> d           0.061  -6.902   2.147  0.00  0.00     0.158 A 
ATOM     33  F2  <0> d          -0.026  -6.766   4.512  0.00  0.00    -0.200 F 
ATOM     34  C11 <0> d           0.065  -6.276   0.909  0.00  0.00    -0.041 A 
ATOM     35  F3  <0> d           0.137  -8.248   2.220  0.00  0.00    -0.203 F 
ATOM     36  C10 <0> d          -0.013  -4.903   0.826  0.00  0.00    -0.062 A 
ATOM     37  H15 <0> d           0.129  -6.867   0.007  0.00  0.00     0.088 H 
ATOM     38  H14 <0> d          -0.010  -4.419  -0.139  0.00  0.00     0.085 H 
ENDBRANCH   2  28
TORSDOF 10
