REMARK  7 active torsions:
REMARK  status: ('A' for Active; 'I' for Inactive)
REMARK    1  A    between atoms: C1_1  and  O1_2 
REMARK    2  A    between atoms: O1_2  and  C2_3 
REMARK    3  A    between atoms: C2_3  and  C3_5 
REMARK    4  A    between atoms: C3_5  and  C4_6 
REMARK    5  A    between atoms: C4_6  and  N1_7 
REMARK    6  A    between atoms: N1_7  and  C5_8 
REMARK       I    between atoms: N1_7  and  C11_14 
REMARK    7  A    between atoms: C11_14  and  C12_16 
ROOT
ATOM      1  N1  <0> d           2.090  -4.000  -2.851  0.00  0.00    -0.343 N 
ATOM      2  C11 <0> d           2.184  -4.407  -1.569  0.00  0.00     0.257 C 
ATOM      3  O3  <0> d           2.289  -3.587  -0.678  0.00  0.00    -0.267 OA
ENDROOT
BRANCH   1   4
ATOM      4  C4  <0> d           3.026  -3.002  -3.373  0.00  0.00     0.007 C 
ATOM      5  H6  <0> d           3.179  -3.170  -4.439  0.00  0.00     0.065 H 
ATOM      6  H7  <0> d           3.979  -3.088  -2.851  0.00  0.00     0.065 H 
BRANCH   4   7
ATOM      7  C3  <0> d           2.451  -1.601  -3.155  0.00  0.00     0.031 C 
ATOM      8  H4  <0> d           2.297  -1.433  -2.089  0.00  0.00     0.050 H 
ATOM      9  H5  <0> d           1.498  -1.514  -3.677  0.00  0.00     0.050 H 
BRANCH   7  10
ATOM     10  C2  <0> d           3.414  -0.573  -3.692  0.00  0.00     0.259 C 
ATOM     11  O2  <0> d           4.453  -0.925  -4.197  0.00  0.00    -0.265 OA
BRANCH  10  12
ATOM     12  O1  <0> d           3.116   0.733  -3.609  0.00  0.00    -0.326 OA
BRANCH  12  13
ATOM     13  C1  <0> d           4.075   1.652  -4.138  0.00  0.00     0.013 C 
ATOM     14  H1  <0> d           5.021   1.533  -3.611  0.00  0.00     0.067 H 
ATOM     15  H2  <0> d           4.222   1.452  -5.200  0.00  0.00     0.067 H 
ATOM     16  H3  <0> d           3.712   2.671  -4.008  0.00  0.00     0.067 H 
ENDBRANCH  12  13
ENDBRANCH  10  12
ENDBRANCH   7  10
ENDBRANCH   4   7
ENDBRANCH   1   4
BRANCH   1  17
ATOM     17  C5  <0> d           1.052  -4.558  -3.722  0.00  0.00     0.015 C 
ATOM     18  C10 <0> d           1.588  -5.812  -4.415  0.00  0.00    -0.046 C 
ATOM     19  C9  <0> d           0.504  -6.394  -5.324  0.00  0.00    -0.063 C 
ATOM     20  H17 <0> d           2.462  -5.553  -5.012  0.00  0.00     0.036 H 
ATOM     21  H18 <0> d           1.867  -6.551  -3.664  0.00  0.00     0.036 H 
ATOM     22  C8  <0> d          -0.723  -6.759  -4.487  0.00  0.00    -0.065 C 
ATOM     23  H15 <0> d           0.885  -7.288  -5.818  0.00  0.00     0.033 H 
ATOM     24  H16 <0> d           0.225  -5.655  -6.076  0.00  0.00     0.033 H 
ATOM     25  C7  <0> d          -1.259  -5.504  -3.794  0.00  0.00    -0.063 C 
ATOM     26  H13 <0> d          -0.444  -7.497  -3.736  0.00  0.00     0.033 H 
ATOM     27  H14 <0> d          -1.495  -7.173  -5.135  0.00  0.00     0.033 H 
ATOM     28  C6  <0> d          -0.175  -4.922  -2.884  0.00  0.00    -0.046 C 
ATOM     29  H11 <0> d          -2.133  -5.764  -3.197  0.00  0.00     0.033 H 
ATOM     30  H12 <0> d          -1.538  -4.765  -4.545  0.00  0.00     0.033 H 
ATOM     31  H9  <0> d           0.104  -5.661  -2.133  0.00  0.00     0.036 H 
ATOM     32  H10 <0> d          -0.556  -4.028  -2.391  0.00  0.00     0.036 H 
ATOM     33  H8  <0> d           0.773  -3.819  -4.473  0.00  0.00     0.072 H 
ENDBRANCH   1  17
BRANCH   2  34
ATOM     34  C12 <0> d           2.159  -5.847  -1.248  0.00  0.00     0.074 A 
ATOM     35  C17 <0> d           2.913  -6.340  -0.178  0.00  0.00     0.173 A 
ATOM     36  C16 <0> d           2.881  -7.691   0.120  0.00  0.00     0.194 A 
ATOM     37  F1  <0> d           3.665  -5.500   0.566  0.00  0.00    -0.202 F 
ATOM     38  C15 <0> d           2.112  -8.554  -0.647  0.00  0.00     0.158 A 
ATOM     39  F2  <0> d           3.602  -8.171   1.157  0.00  0.00    -0.200 F 
ATOM     40  C14 <0> d           1.369  -8.067  -1.712  0.00  0.00    -0.041 A 
ATOM     41  F3  <0> d           2.088  -9.873  -0.356  0.00  0.00    -0.203 F 
ATOM     42  C13 <0> d           1.388  -6.724  -2.015  0.00  0.00    -0.062 A 
ATOM     43  H20 <0> d           0.772  -8.744  -2.306  0.00  0.00     0.088 H 
ATOM     44  H19 <0> d           0.808  -6.348  -2.845  0.00  0.00     0.085 H 
ENDBRANCH   2  34
TORSDOF 7
