REMARK  10 active torsions:
REMARK  status: ('A' for Active; 'I' for Inactive)
REMARK    1  A    between atoms: C1_1  and  C2_2 
REMARK    2  A    between atoms: C2_2  and  C3_4 
REMARK    3  A    between atoms: C2_2  and  C12_16 
REMARK    4  A    between atoms: C3_4  and  N1_5 
REMARK    5  A    between atoms: N1_5  and  C4_6 
REMARK       I    between atoms: N1_5  and  C9_11 
REMARK    6  A    between atoms: C9_11  and  C10_13 
REMARK    7  A    between atoms: C10_13  and  O2_14 
REMARK    8  A    between atoms: O2_14  and  C11_15 
REMARK    9  A    between atoms: C12_16  and  O4_18 
REMARK   10  A    between atoms: O4_18  and  C13_19 
ROOT
ATOM      1  N1  <0> d           2.158  -0.096   1.154  0.00  0.00    -0.345 N 
ATOM      2  C9  <0> d           3.130  -0.917   0.709  0.00  0.00     0.243 C 
ATOM      3  O1  <0> d           2.839  -1.945   0.135  0.00  0.00    -0.271 OA
ENDROOT
BRANCH   1   4
ATOM      4  C3  <0> d           0.754  -0.501   1.054  0.00  0.00     0.010 C 
ATOM      5  H5  <0> d           0.187  -0.050   1.869  0.00  0.00     0.065 H 
ATOM      6  H6  <0> d           0.684  -1.587   1.120  0.00  0.00     0.065 H 
BRANCH   4   7
ATOM      7  C2  <0> d           0.182  -0.034  -0.285  0.00  0.00     0.042 C 
ATOM      8  H1  <0> d           0.802  -0.413  -1.097  0.00  0.00     0.057 H 
BRANCH   7   9
ATOM      9  C1  <0> d           0.166   1.496  -0.327  0.00  0.00    -0.063 C 
ATOM     10  H2  <0> d           1.182   1.873  -0.214  0.00  0.00     0.028 H 
ATOM     11  H3  <0> d          -0.242   1.829  -1.281  0.00  0.00     0.028 H 
ATOM     12  H4  <0> d          -0.455   1.875   0.485  0.00  0.00     0.028 H 
ENDBRANCH   7   9
BRANCH   7  13
ATOM     13  C12 <0> d          -1.223  -0.555  -0.441  0.00  0.00     0.263 C 
ATOM     14  O3  <0> d          -1.717  -1.232   0.430  0.00  0.00    -0.265 OA
BRANCH  13  15
ATOM     15  O4  <0> d          -1.927  -0.268  -1.548  0.00  0.00    -0.326 OA
BRANCH  15  16
ATOM     16  C13 <0> d          -3.253  -0.796  -1.628  0.00  0.00     0.013 C 
ATOM     17  H21 <0> d          -3.214  -1.884  -1.580  0.00  0.00     0.067 H 
ATOM     18  H22 <0> d          -3.846  -0.415  -0.797  0.00  0.00     0.067 H 
ATOM     19  H23 <0> d          -3.708  -0.490  -2.570  0.00  0.00     0.067 H 
ENDBRANCH  15  16
ENDBRANCH  13  15
ENDBRANCH   7  13
ENDBRANCH   4   7
ENDBRANCH   1   4
BRANCH   1  20
ATOM     20  C4  <0> d           2.506   1.202   1.737  0.00  0.00     0.015 C 
ATOM     21  C8  <0> d           3.444   1.004   2.941  0.00  0.00    -0.046 C 
ATOM     22  C7  <0> d           4.757   1.741   2.603  0.00  0.00    -0.063 C 
ATOM     23  H14 <0> d           2.996   1.432   3.838  0.00  0.00     0.036 H 
ATOM     24  H15 <0> d           3.640  -0.058   3.091  0.00  0.00     0.036 H 
ATOM     25  C6  <0> d           4.337   2.805   1.558  0.00  0.00    -0.063 C 
ATOM     26  H12 <0> d           5.482   1.050   2.174  0.00  0.00     0.033 H 
ATOM     27  H13 <0> d           5.165   2.221   3.493  0.00  0.00     0.033 H 
ATOM     28  C5  <0> d           3.282   2.052   0.710  0.00  0.00    -0.046 C 
ATOM     29  H10 <0> d           5.188   3.099   0.944  0.00  0.00     0.033 H 
ATOM     30  H11 <0> d           3.893   3.672   2.046  0.00  0.00     0.033 H 
ATOM     31  H8  <0> d           3.769   1.412  -0.025  0.00  0.00     0.036 H 
ATOM     32  H9  <0> d           2.613   2.759   0.217  0.00  0.00     0.036 H 
ATOM     33  H7  <0> d           1.603   1.725   2.050  0.00  0.00     0.072 H 
ENDBRANCH   1  20
BRANCH   2  34
ATOM     34  C10 <0> d           4.577  -0.558   0.924  0.00  0.00     0.092 C 
ATOM     35  H16 <0> d           4.767   0.439   0.527  0.00  0.00     0.088 H 
ATOM     36  H17 <0> d           4.801  -0.573   1.991  0.00  0.00     0.088 H 
BRANCH  34  37
ATOM     37  O2  <0> d           5.409  -1.506   0.251  0.00  0.00    -0.387 OA
BRANCH  37  38
ATOM     38  C11 <0> d           6.808  -1.255   0.393  0.00  0.00     0.005 C 
ATOM     39  H18 <0> d           7.045  -0.272  -0.016  0.00  0.00     0.066 H 
ATOM     40  H19 <0> d           7.078  -1.284   1.448  0.00  0.00     0.066 H 
ATOM     41  H20 <0> d           7.370  -2.017  -0.147  0.00  0.00     0.066 H 
ENDBRANCH  37  38
ENDBRANCH  34  37
ENDBRANCH   2  34
TORSDOF 10
