REMARK  22 active torsions:
REMARK  status: ('A' for Active; 'I' for Inactive)
REMARK    1  A    between atoms: C1_1  and  C2_2 
REMARK    2  A    between atoms: C3_3  and  C10_12 
REMARK    3  A    between atoms: C4_4  and  C8_10 
REMARK    4  A    between atoms: C4_4  and  C9_11 
REMARK    5  A    between atoms: C6_6  and  O1_9 
REMARK    6  A    between atoms: C11_13  and  C12_14 
REMARK    7  A    between atoms: C12_14  and  C40_45 
REMARK    8  A    between atoms: C13_15  and  C14_16 
REMARK    9  A    between atoms: C15_17  and  C16_18 
REMARK   10  A    between atoms: C16_18  and  C39_44 
REMARK   11  A    between atoms: C17_19  and  C18_20 
REMARK   12  A    between atoms: C19_21  and  C20_22 
REMARK   13  A    between atoms: C21_23  and  C22_24 
REMARK   14  A    between atoms: C21_23  and  C23_25 
REMARK   15  A    between atoms: C24_26  and  C25_27 
REMARK   16  A    between atoms: C26_28  and  C27_29 
REMARK   17  A    between atoms: C26_28  and  C28_30 
REMARK   18  A    between atoms: C29_31  and  C30_32 
REMARK   19  A    between atoms: C31_34  and  C38_43 
REMARK   20  A    between atoms: C33_36  and  O2_42 
REMARK   21  A    between atoms: C35_39  and  C36_40 
REMARK   22  A    between atoms: C35_39  and  C37_41 
ROOT
ATOM      1  C18 <0> d          -0.791  -3.539  -2.024  0.00  0.00    -0.082 C 
ATOM      2  C19 <0> d          -0.566  -4.884  -2.221  0.00  0.00    -0.082 C 
ATOM      3  H24 <0> d          -1.816  -3.141  -2.067  0.00  0.00     0.083 H 
ATOM      4  H25 <0> d           0.459  -5.282  -2.178  0.00  0.00     0.083 H 
ENDROOT
BRANCH   1   5
ATOM      5  C17 <0> d           0.283  -2.680  -1.767  0.00  0.00    -0.077 C 
ATOM      6  C16 <0> d           0.058  -1.335  -1.569  0.00  0.00    -0.062 C 
ATOM      7  H23 <0> d           1.308  -3.078  -1.723  0.00  0.00     0.084 H 
BRANCH   6   8
ATOM      8  C15 <0> d           1.133  -0.475  -1.313  0.00  0.00    -0.077 C 
ATOM      9  C14 <0> d           0.907   0.869  -1.115  0.00  0.00    -0.082 C 
ATOM     10  H21 <0> d          -0.117   1.267  -1.159  0.00  0.00     0.083 H 
ATOM     11  H22 <0> d           2.157  -0.874  -1.269  0.00  0.00     0.084 H 
BRANCH   9  12
ATOM     12  C13 <0> d           1.983   1.729  -0.858  0.00  0.00    -0.077 C 
ATOM     13  C12 <0> d           1.760   3.062  -0.662  0.00  0.00    -0.062 C 
ATOM     14  H20 <0> d           3.008   1.331  -0.815  0.00  0.00     0.084 H 
BRANCH  13  15
ATOM     15  C11 <0> d           2.839   3.925  -0.404  0.00  0.00    -0.077 C 
ATOM     16  C10 <0> d           2.617   5.251  -0.209  0.00  0.00    -0.075 C 
ATOM     17  H18 <0> d           1.589   5.643  -0.211  0.00  0.00     0.084 H 
ATOM     18  H19 <0> d           3.864   3.526  -0.361  0.00  0.00     0.084 H 
BRANCH  16  19
ATOM     19  C3  <0> d           3.710   6.130  -0.003  0.00  0.00    -0.048 C 
ATOM     20  C2  <0> d           4.526   5.885   1.008  0.00  0.00    -0.074 C 
ATOM     21  C7  <0> d           5.724   6.728   1.335  0.00  0.00    -0.020 C 
ATOM     22  C6  <0> d           5.618   8.086   0.639  0.00  0.00     0.040 C 
ATOM     23  H9  <0> d           5.778   6.883   2.423  0.00  0.00     0.043 H 
ATOM     24  H10 <0> d           6.636   6.217   0.992  0.00  0.00     0.043 H 
ATOM     25  C5  <0> d           5.294   7.851  -0.842  0.00  0.00    -0.031 C 
ATOM     26  H1  <0> d           4.875   8.736   1.124  0.00  0.00     0.083 H 
ATOM     27  C4  <0> d           3.879   7.284  -0.949  0.00  0.00    -0.018 C 
ATOM     28  H7  <0> d           6.010   7.136  -1.272  0.00  0.00     0.038 H 
ATOM     29  H8  <0> d           5.350   8.802  -1.392  0.00  0.00     0.038 H 
BRANCH  20  30
ATOM     30  C1  <0> d           4.236   4.692   1.882  0.00  0.00    -0.054 C 
ATOM     31  H4  <0> d           3.333   4.181   1.517  0.00  0.00     0.033 H 
ATOM     32  H5  <0> d           4.075   5.026   2.918  0.00  0.00     0.033 H 
ATOM     33  H6  <0> d           5.089   3.998   1.850  0.00  0.00     0.033 H 
ENDBRANCH  20  30
BRANCH  22  34
ATOM     34  O1  <0> d           6.860   8.783   0.754  0.00  0.00    -0.395 OA
ATOM     35  H11 <0> d           7.257   9.040   1.747  0.00  0.00     0.210 HD
ENDBRANCH  22  34
BRANCH  27  36
ATOM     36  C8  <0> d           3.629   6.806  -2.381  0.00  0.00    -0.065 C 
ATOM     37  H12 <0> d           3.752   7.650  -3.076  0.00  0.00     0.028 H 
ATOM     38  H13 <0> d           2.605   6.411  -2.462  0.00  0.00     0.028 H 
ATOM     39  H14 <0> d           4.348   6.014  -2.635  0.00  0.00     0.028 H 
ENDBRANCH  27  36
BRANCH  27  40
ATOM     40  C9  <0> d           2.870   8.379  -0.599  0.00  0.00    -0.065 C 
ATOM     41  H15 <0> d           2.993   9.225  -1.291  0.00  0.00     0.028 H 
ATOM     42  H16 <0> d           3.043   8.721   0.432  0.00  0.00     0.028 H 
ATOM     43  H17 <0> d           1.849   7.979  -0.686  0.00  0.00     0.028 H 
ENDBRANCH  27  40
ENDBRANCH  16  19
ENDBRANCH  13  15
BRANCH  13  44
ATOM     44  C40 <0> d           0.357   3.607  -0.722  0.00  0.00    -0.051 C 
ATOM     45  H54 <0> d          -0.347   2.788  -0.932  0.00  0.00     0.033 H 
ATOM     46  H55 <0> d           0.290   4.361  -1.520  0.00  0.00     0.033 H 
ATOM     47  H56 <0> d           0.102   4.070   0.243  0.00  0.00     0.033 H 
ENDBRANCH  13  44
ENDBRANCH   9  12
ENDBRANCH   6   8
BRANCH   6  48
ATOM     48  C39 <0> d          -1.346  -0.789  -1.629  0.00  0.00    -0.051 C 
ATOM     49  H51 <0> d          -2.049  -1.609  -1.839  0.00  0.00     0.033 H 
ATOM     50  H52 <0> d          -1.412  -0.035  -2.427  0.00  0.00     0.033 H 
ATOM     51  H53 <0> d          -1.601  -0.326  -0.664  0.00  0.00     0.033 H 
ENDBRANCH   6  48
ENDBRANCH   1   5
BRANCH   2  52
ATOM     52  C20 <0> d          -1.641  -5.744  -2.478  0.00  0.00    -0.077 C 
ATOM     53  C21 <0> d          -1.415  -7.088  -2.676  0.00  0.00    -0.062 C 
ATOM     54  H26 <0> d          -2.665  -5.346  -2.522  0.00  0.00     0.084 H 
BRANCH  53  55
ATOM     55  C22 <0> d          -0.012  -7.633  -2.616  0.00  0.00    -0.051 C 
ATOM     56  H27 <0> d          -0.032  -8.718  -2.797  0.00  0.00     0.033 H 
ATOM     57  H28 <0> d           0.416  -7.435  -1.622  0.00  0.00     0.033 H 
ATOM     58  H29 <0> d           0.605  -7.144  -3.385  0.00  0.00     0.033 H 
ENDBRANCH  53  55
BRANCH  53  59
ATOM     59  C23 <0> d          -2.492  -7.948  -2.933  0.00  0.00    -0.077 C 
ATOM     60  C24 <0> d          -2.268  -9.281  -3.129  0.00  0.00    -0.082 C 
ATOM     61  H31 <0> d          -1.244  -9.679  -3.085  0.00  0.00     0.083 H 
ATOM     62  H30 <0> d          -3.516  -7.550  -2.976  0.00  0.00     0.084 H 
BRANCH  60  63
ATOM     63  C25 <0> d          -3.348 -10.144  -3.386  0.00  0.00    -0.077 C 
ATOM     64  C26 <0> d          -3.125 -11.470  -3.581  0.00  0.00    -0.062 C 
ATOM     65  H32 <0> d          -4.372  -9.746  -3.430  0.00  0.00     0.084 H 
BRANCH  64  66
ATOM     66  C27 <0> d          -1.722 -12.016  -3.522  0.00  0.00    -0.051 C 
ATOM     67  H33 <0> d          -1.742 -13.101  -3.703  0.00  0.00     0.033 H 
ATOM     68  H34 <0> d          -1.294 -11.818  -2.528  0.00  0.00     0.033 H 
ATOM     69  H35 <0> d          -1.105 -11.527  -4.290  0.00  0.00     0.033 H 
ENDBRANCH  64  66
BRANCH  64  70
ATOM     70  C28 <0> d          -4.213 -12.341  -3.841  0.00  0.00    -0.080 C 
ATOM     71  C29 <0> d          -3.995 -13.645  -4.033  0.00  0.00    -0.094 C 
ATOM     72  H37 <0> d          -2.970 -14.043  -3.989  0.00  0.00     0.077 H 
ATOM     73  H36 <0> d          -5.238 -11.943  -3.885  0.00  0.00     0.083 H 
BRANCH  71  74
ATOM     74  C30 <0> d          -5.152 -14.570  -4.309  0.00  0.00    -0.010 C 
ATOM     75  H2  <0> d          -6.088 -13.994  -4.326  0.00  0.00     0.054 H 
ATOM     76  C35 <0> d          -5.216 -15.642  -3.219  0.00  0.00    -0.035 C 
ATOM     77  C34 <0> d          -6.223 -16.715  -3.651  0.00  0.00    -0.031 C 
ATOM     78  C33 <0> d          -5.655 -17.450  -4.867  0.00  0.00     0.053 C 
ATOM     79  H39 <0> d          -7.180 -16.245  -3.922  0.00  0.00     0.038 H 
ATOM     80  H40 <0> d          -6.385 -17.431  -2.832  0.00  0.00     0.038 H 
ATOM     81  C32 <0> d          -5.189 -16.463  -5.897  0.00  0.00    -0.073 C 
ATOM     82  H3  <0> d          -4.823 -18.113  -4.584  0.00  0.00     0.089 H 
ATOM     83  C31 <0> d          -4.966 -15.211  -5.653  0.00  0.00    -0.077 C 
ATOM     84  H38 <0> d          -5.038 -16.861  -6.911  0.00  0.00     0.081 H 
BRANCH  76  85
ATOM     85  C36 <0> d          -3.835 -16.276  -3.038  0.00  0.00    -0.068 C 
ATOM     86  H41 <0> d          -3.884 -17.045  -2.254  0.00  0.00     0.028 H 
ATOM     87  H42 <0> d          -3.111 -15.500  -2.747  0.00  0.00     0.028 H 
ATOM     88  H43 <0> d          -3.517 -16.737  -3.985  0.00  0.00     0.028 H 
ENDBRANCH  76  85
BRANCH  76  89
ATOM     89  C37 <0> d          -5.667 -15.008  -1.901  0.00  0.00    -0.068 C 
ATOM     90  H44 <0> d          -5.712 -15.781  -1.119  0.00  0.00     0.028 H 
ATOM     91  H45 <0> d          -6.663 -14.560  -2.032  0.00  0.00     0.028 H 
ATOM     92  H46 <0> d          -4.950 -14.229  -1.605  0.00  0.00     0.028 H 
ENDBRANCH  76  89
BRANCH  78  93
ATOM     93  O2  <0> d          -6.668 -18.283  -5.434  0.00  0.00    -0.392 OA
ATOM     94  H47 <0> d          -7.134 -19.073  -4.826  0.00  0.00     0.210 HD
ENDBRANCH  78  93
BRANCH  83  95
ATOM     95  C38 <0> d          -4.491 -14.344  -6.790  0.00  0.00    -0.054 C 
ATOM     96  H48 <0> d          -4.404 -14.951  -7.703  0.00  0.00     0.033 H 
ATOM     97  H49 <0> d          -3.510 -13.916  -6.540  0.00  0.00     0.033 H 
ATOM     98  H50 <0> d          -5.213 -13.531  -6.958  0.00  0.00     0.033 H 
ENDBRANCH  83  95
ENDBRANCH  71  74
ENDBRANCH  64  70
ENDBRANCH  60  63
ENDBRANCH  53  59
ENDBRANCH   2  52
TORSDOF 22
