REMARK  7 active torsions:
REMARK  status: ('A' for Active; 'I' for Inactive)
REMARK    1  A    between atoms: C1_1  and  C2_2 
REMARK    2  A    between atoms: C2_2  and  C3_4 
REMARK    3  A    between atoms: C2_2  and  O3_26 
REMARK    4  A    between atoms: C3_4  and  N1_5 
REMARK    5  A    between atoms: C9_12  and  O2_16 
REMARK    6  A    between atoms: O2_16  and  C12_17 
REMARK    7  A    between atoms: C12_17  and  C13_18 
ROOT
ATOM      1  N1  <0> d           0.762  -1.976   1.234  0.00  0.00    -0.324 N 
ATOM      2  C4  <0> d          -0.257  -2.848   1.830  0.00  0.00     0.125 A 
ATOM      3  H2  <0> d          -0.323  -2.667   2.903  0.00  0.00     0.104 H 
ATOM      4  C5  <0> d           0.196  -4.263   1.568  0.00  0.00    -0.003 A 
ATOM      5  C6  <0> d          -0.333  -5.493   1.879  0.00  0.00    -0.073 A 
ATOM      6  C7  <0> d           0.327  -6.650   1.496  0.00  0.00    -0.080 A 
ATOM      7  C8  <0> d           1.518  -6.576   0.801  0.00  0.00    -0.050 A 
ATOM      8  C9  <0> d           2.063  -5.342   0.480  0.00  0.00     0.085 A 
ATOM      9  C10 <0> d           1.400  -4.168   0.865  0.00  0.00     0.074 A 
ATOM     10  C11 <0> d           1.713  -2.743   0.673  0.00  0.00     0.258 A 
ATOM     11  O1  <0> d           2.694  -2.319   0.094  0.00  0.00    -0.267 OA
ATOM     12  C19 <0> d          -1.563  -2.607   1.196  0.00  0.00     0.089 C 
ATOM     13  N2  <0> d          -2.571  -2.421   0.706  0.00  0.00    -0.195 NA
ATOM     14  H8  <0> d          -1.264  -5.558   2.423  0.00  0.00     0.084 H 
ATOM     15  H9  <0> d          -0.092  -7.615   1.744  0.00  0.00     0.083 H 
ATOM     16  H10 <0> d           2.026  -7.482   0.506  0.00  0.00     0.087 H 
ENDROOT
BRANCH   1  17
ATOM     17  C3  <0> d           0.742  -0.511   1.242  0.00  0.00     0.023 C 
ATOM     18  H6  <0> d           1.765  -0.134   1.234  0.00  0.00     0.068 H 
ATOM     19  H7  <0> d           0.232  -0.159   2.138  0.00  0.00     0.068 H 
BRANCH  17  20
ATOM     20  C2  <0> d           0.002  -0.004   0.002  0.00  0.00     0.047 C 
ATOM     21  H1  <0> d          -1.020  -0.381   0.010  0.00  0.00     0.084 H 
BRANCH  20  22
ATOM     22  C1  <0> d          -0.019   1.526   0.010  0.00  0.00    -0.051 C 
ATOM     23  H3  <0> d           1.004   1.903   0.003  0.00  0.00     0.030 H 
ATOM     24  H4  <0> d          -0.546   1.887  -0.873  0.00  0.00     0.030 H 
ATOM     25  H5  <0> d          -0.529   1.877   0.907  0.00  0.00     0.030 H 
ENDBRANCH  20  22
BRANCH  20  26
ATOM     26  O3  <0> d           0.671  -0.465  -1.174  0.00  0.00    -0.394 OA
ATOM     27  H18 <0> d           1.588  -0.167  -1.247  0.00  0.00     0.210 HD
ENDBRANCH  20  26
ENDBRANCH  17  20
ENDBRANCH   1  17
BRANCH   8  28
ATOM     28  O2  <0> d           3.233  -5.271  -0.203  0.00  0.00    -0.346 OA
BRANCH  28  29
ATOM     29  C12 <0> d           3.852  -6.508  -0.561  0.00  0.00     0.050 C 
ATOM     30  H11 <0> d           4.074  -7.078   0.342  0.00  0.00     0.082 H 
ATOM     31  H12 <0> d           3.176  -7.081  -1.196  0.00  0.00     0.082 H 
BRANCH  29  32
ATOM     32  C13 <0> d           5.131  -6.232  -1.308  0.00  0.00    -0.034 A 
ATOM     33  C18 <0> d           6.321  -6.103  -0.617  0.00  0.00    -0.075 A 
ATOM     34  C17 <0> d           7.495  -5.855  -1.302  0.00  0.00    -0.082 A 
ATOM     35  H17 <0> d           6.334  -6.200   0.459  0.00  0.00     0.084 H 
ATOM     36  C16 <0> d           7.478  -5.726  -2.679  0.00  0.00    -0.083 A 
ATOM     37  H16 <0> d           8.426  -5.758  -0.763  0.00  0.00     0.083 H 
ATOM     38  C15 <0> d           6.287  -5.850  -3.370  0.00  0.00    -0.082 A 
ATOM     39  H15 <0> d           8.395  -5.529  -3.214  0.00  0.00     0.083 H 
ATOM     40  C14 <0> d           5.114  -6.103  -2.684  0.00  0.00    -0.075 A 
ATOM     41  H14 <0> d           6.274  -5.750  -4.445  0.00  0.00     0.083 H 
ATOM     42  H13 <0> d           4.183  -6.199  -3.224  0.00  0.00     0.084 H 
ENDBRANCH  29  32
ENDBRANCH  28  29
ENDBRANCH   8  28
TORSDOF 7
