REMARK  12 active torsions:
REMARK  status: ('A' for Active; 'I' for Inactive)
REMARK    1  A    between atoms: C1_1  and  C2_2 
REMARK    2  A    between atoms: C2_2  and  C3_4 
REMARK    3  A    between atoms: C2_2  and  C14_19 
REMARK    4  A    between atoms: C3_4  and  N1_5 
REMARK    5  A    between atoms: N1_5  and  C4_6 
REMARK       I    between atoms: N1_5  and  C9_13 
REMARK    6  A    between atoms: C4_6  and  C5_7 
REMARK    7  A    between atoms: C9_13  and  C10_15 
REMARK    8  A    between atoms: C10_15  and  C11_16 
REMARK    9  A    between atoms: C10_15  and  C12_17 
REMARK   10  A    between atoms: C10_15  and  C13_18 
REMARK   11  A    between atoms: C14_19  and  O4_21 
REMARK   12  A    between atoms: O4_21  and  C15_22 
ROOT
ATOM      1  N1  <0> d          -0.894   0.057  -2.560  0.00  0.00    -0.348 N 
ATOM      2  C9  <0> d          -1.464  -1.121  -2.884  0.00  0.00     0.227 C 
ATOM      3  O2  <0> d          -2.047  -1.242  -3.940  0.00  0.00    -0.273 OA
ENDROOT
BRANCH   1   4
ATOM      4  C3  <0> d          -0.145   0.189  -1.308  0.00  0.00     0.009 C 
ATOM      5  H6  <0> d           0.713   0.843  -1.464  0.00  0.00     0.065 H 
ATOM      6  H7  <0> d           0.202  -0.794  -0.987  0.00  0.00     0.065 H 
BRANCH   4   7
ATOM      7  C2  <0> d          -1.052   0.786  -0.231  0.00  0.00     0.042 C 
ATOM      8  H1  <0> d          -1.936   0.160  -0.112  0.00  0.00     0.057 H 
BRANCH   7   9
ATOM      9  C1  <0> d          -1.478   2.196  -0.647  0.00  0.00    -0.063 C 
ATOM     10  H3  <0> d          -0.594   2.822  -0.765  0.00  0.00     0.028 H 
ATOM     11  H4  <0> d          -2.019   2.147  -1.592  0.00  0.00     0.028 H 
ATOM     12  H5  <0> d          -2.125   2.621   0.120  0.00  0.00     0.028 H 
ENDBRANCH   7   9
BRANCH   7  13
ATOM     13  C14 <0> d          -0.305   0.853   1.076  0.00  0.00     0.263 C 
ATOM     14  O3  <0> d           0.837   0.462   1.139  0.00  0.00    -0.265 OA
BRANCH  13  15
ATOM     15  O4  <0> d          -0.907   1.345   2.170  0.00  0.00    -0.326 OA
BRANCH  15  16
ATOM     16  C15 <0> d          -0.139   1.379   3.374  0.00  0.00     0.013 C 
ATOM     17  H25 <0> d          -0.743   1.798   4.179  0.00  0.00     0.067 H 
ATOM     18  H26 <0> d           0.166   0.366   3.639  0.00  0.00     0.067 H 
ATOM     19  H27 <0> d           0.746   1.997   3.224  0.00  0.00     0.067 H 
ENDBRANCH  15  16
ENDBRANCH  13  15
ENDBRANCH   7  13
ENDBRANCH   4   7
ENDBRANCH   1   4
BRANCH   1  20
ATOM     20  C4  <0> d          -1.024   1.206  -3.460  0.00  0.00     0.022 C 
ATOM     21  H8  <0> d          -1.966   1.137  -4.003  0.00  0.00     0.068 H 
ATOM     22  H9  <0> d          -1.006   2.127  -2.878  0.00  0.00     0.068 H 
BRANCH  20  23
ATOM     23  C5  <0> d           0.139   1.209  -4.454  0.00  0.00     0.054 C 
ATOM     24  H2  <0> d           0.141   0.286  -5.035  0.00  0.00     0.085 H 
ATOM     25  O1  <0> d           1.388   1.364  -3.761  0.00  0.00    -0.384 OA
ATOM     26  C8  <0> d           2.278   2.177  -4.537  0.00  0.00     0.020 C 
ATOM     27  C7  <0> d           1.525   2.607  -5.814  0.00  0.00    -0.043 C 
ATOM     28  H14 <0> d           3.163   1.600  -4.806  0.00  0.00     0.074 H 
ATOM     29  H15 <0> d           2.570   3.058  -3.965  0.00  0.00     0.074 H 
ATOM     30  C6  <0> d           0.040   2.436  -5.394  0.00  0.00    -0.037 C 
ATOM     31  H12 <0> d           1.770   1.950  -6.649  0.00  0.00     0.036 H 
ATOM     32  H13 <0> d           1.742   3.646  -6.061  0.00  0.00     0.036 H 
ATOM     33  H10 <0> d          -0.590   2.220  -6.257  0.00  0.00     0.036 H 
ATOM     34  H11 <0> d          -0.320   3.314  -4.857  0.00  0.00     0.036 H 
ENDBRANCH  20  23
ENDBRANCH   1  20
BRANCH   2  35
ATOM     35  C10 <0> d          -1.376  -2.287  -1.933  0.00  0.00     0.030 C 
BRANCH  35  36
ATOM     36  C11 <0> d          -2.298  -3.408  -2.416  0.00  0.00    -0.061 C 
ATOM     37  H16 <0> d          -1.991  -3.728  -3.412  0.00  0.00     0.029 H 
ATOM     38  H17 <0> d          -2.234  -4.252  -1.728  0.00  0.00     0.029 H 
ATOM     39  H18 <0> d          -3.325  -3.045  -2.451  0.00  0.00     0.029 H 
ENDBRANCH  35  36
BRANCH  35  40
ATOM     40  C12 <0> d           0.066  -2.797  -1.884  0.00  0.00    -0.061 C 
ATOM     41  H19 <0> d           0.714  -2.016  -1.488  0.00  0.00     0.029 H 
ATOM     42  H20 <0> d           0.119  -3.674  -1.239  0.00  0.00     0.029 H 
ATOM     43  H21 <0> d           0.391  -3.065  -2.889  0.00  0.00     0.029 H 
ENDBRANCH  35  40
BRANCH  35  44
ATOM     44  C13 <0> d          -1.806  -1.839  -0.535  0.00  0.00    -0.061 C 
ATOM     45  H22 <0> d          -2.730  -1.264  -0.606  0.00  0.00     0.029 H 
ATOM     46  H23 <0> d          -1.971  -2.715   0.093  0.00  0.00     0.029 H 
ATOM     47  H24 <0> d          -1.026  -1.218  -0.096  0.00  0.00     0.029 H 
ENDBRANCH  35  44
ENDBRANCH   2  35
TORSDOF 12
