REMARK  7 active torsions:
REMARK  status: ('A' for Active; 'I' for Inactive)
REMARK    1  A    between atoms: C1_1  and  C2_2 
REMARK    2  A    between atoms: C2_2  and  C3_4 
REMARK    3  A    between atoms: C2_2  and  N1_7 
REMARK    4  A    between atoms: C10_15  and  C11_16 
REMARK    5  A    between atoms: C11_16  and  C12_17 
REMARK    6  A    between atoms: C12_17  and  C13_18 
REMARK    7  A    between atoms: C13_18  and  C14_19 
ROOT
ATOM      1  N1  <0> d          -1.372  -0.511   0.012  0.00  0.00    -0.318 N 
ATOM      2  C4  <0> d          -2.325  -0.273   0.983  0.00  0.00     0.065 A 
ATOM      3  C5  <0> d          -2.336   0.448   2.169  0.00  0.00    -0.053 A 
ATOM      4  C6  <0> d          -3.479   0.490   2.937  0.00  0.00    -0.060 A 
ATOM      5  C7  <0> d          -4.624  -0.185   2.532  0.00  0.00     0.036 A 
ATOM      6  C8  <0> d          -4.632  -0.906   1.359  0.00  0.00    -0.032 A 
ATOM      7  C9  <0> d          -3.480  -0.958   0.569  0.00  0.00     0.087 A 
ATOM      8  N2  <0> d          -3.179  -1.565  -0.608  0.00  0.00    -0.233 NA
ATOM      9  C10 <0> d          -1.948  -1.299  -0.935  0.00  0.00     0.108 A 
ATOM     10 Cl1  <0> d          -6.055  -0.121   3.513  0.00  0.00    -0.084 Cl
ATOM     11  H5  <0> d          -1.449   0.975   2.490  0.00  0.00     0.087 H 
ATOM     12  H6  <0> d          -3.486   1.051   3.860  0.00  0.00     0.086 H 
ATOM     13  H7  <0> d          -5.525  -1.428   1.050  0.00  0.00     0.089 H 
ENDROOT
BRANCH   9  14
ATOM     14  C11 <0> d          -1.260  -1.795  -2.181  0.00  0.00    -0.009 C 
ATOM     15  H8  <0> d          -1.994  -1.920  -2.976  0.00  0.00     0.044 H 
ATOM     16  H9  <0> d          -0.506  -1.071  -2.492  0.00  0.00     0.044 H 
BRANCH  14  17
ATOM     17  C12 <0> d          -0.588  -3.138  -1.891  0.00  0.00    -0.050 C 
ATOM     18  H10 <0> d           0.147  -3.013  -1.095  0.00  0.00     0.034 H 
ATOM     19  H11 <0> d          -1.341  -3.862  -1.580  0.00  0.00     0.034 H 
BRANCH  17  20
ATOM     20  C13 <0> d           0.112  -3.642  -3.156  0.00  0.00     0.016 C 
ATOM     21  H12 <0> d          -0.623  -3.767  -3.952  0.00  0.00     0.049 H 
ATOM     22  H13 <0> d           0.865  -2.918  -3.467  0.00  0.00     0.049 H 
BRANCH  20  23
ATOM     23  C14 <0> d           0.774  -4.965  -2.871  0.00  0.00     0.172 C 
ATOM     24  O3  <0> d           0.694  -5.460  -1.759  0.00  0.00    -0.648 OA
ATOM     25  O4  <0> d           1.389  -5.541  -3.752  0.00  0.00    -0.648 OA
ENDBRANCH  20  23
ENDBRANCH  17  20
ENDBRANCH  14  17
ENDBRANCH   9  14
BRANCH   1  26
ATOM     26  C2  <0> d           0.002  -0.004   0.002  0.00  0.00     0.099 C 
ATOM     27  H1  <0> d           0.512  -0.356  -0.895  0.00  0.00     0.089 H 
BRANCH  26  28
ATOM     28  C1  <0> d          -0.019   1.526   0.010  0.00  0.00    -0.048 C 
ATOM     29  H2  <0> d           1.004   1.903   0.003  0.00  0.00     0.030 H 
ATOM     30  H3  <0> d          -0.546   1.887  -0.873  0.00  0.00     0.030 H 
ATOM     31  H4  <0> d          -0.529   1.877   0.907  0.00  0.00     0.030 H 
ENDBRANCH  26  28
BRANCH  26  32
ATOM     32  C3  <0> d           0.731  -0.503   1.223  0.00  0.00     0.196 C 
ATOM     33  O1  <0> d           0.321  -0.220   2.336  0.00  0.00    -0.646 OA
ATOM     34  O2  <0> d           1.730  -1.190   1.098  0.00  0.00    -0.646 OA
ENDBRANCH  26  32
ENDBRANCH   1  26
TORSDOF 7
