REMARK  12 active torsions:
REMARK  status: ('A' for Active; 'I' for Inactive)
REMARK    1  A    between atoms: C1_1  and  C2_2 
REMARK    2  A    between atoms: C2_2  and  C3_4 
REMARK    3  A    between atoms: C2_2  and  C12_15 
REMARK    4  A    between atoms: C3_4  and  N1_5 
REMARK    5  A    between atoms: N1_5  and  C4_6 
REMARK       I    between atoms: N1_5  and  C7_9 
REMARK    6  A    between atoms: C4_6  and  C5_7 
REMARK    7  A    between atoms: C7_9  and  C8_11 
REMARK    8  A    between atoms: C8_11  and  C9_12 
REMARK    9  A    between atoms: C8_11  and  C10_13 
REMARK   10  A    between atoms: C8_11  and  C11_14 
REMARK   11  A    between atoms: C12_15  and  O3_17 
REMARK   12  A    between atoms: O3_17  and  C13_18 
ROOT
ATOM      1  N1  <0> d           1.620   1.106   2.293  0.00  0.00    -0.347 N 
ATOM      2  C7  <0> d           1.380   1.913   3.346  0.00  0.00     0.227 C 
ATOM      3  O1  <0> d           2.111   2.854   3.568  0.00  0.00    -0.273 OA
ENDROOT
BRANCH   1   4
ATOM      4  C3  <0> d           2.780   1.351   1.432  0.00  0.00     0.009 C 
ATOM      5  H5  <0> d           3.130   0.406   1.017  0.00  0.00     0.065 H 
ATOM      6  H6  <0> d           3.577   1.809   2.018  0.00  0.00     0.065 H 
BRANCH   4   7
ATOM      7  C2  <0> d           2.379   2.291   0.293  0.00  0.00     0.042 C 
ATOM      8  H1  <0> d           1.524   1.874  -0.238  0.00  0.00     0.057 H 
BRANCH   7   9
ATOM      9  C1  <0> d           2.005   3.659   0.869  0.00  0.00    -0.063 C 
ATOM     10  H2  <0> d           2.861   4.076   1.400  0.00  0.00     0.028 H 
ATOM     11  H3  <0> d           1.720   4.329   0.057  0.00  0.00     0.028 H 
ATOM     12  H4  <0> d           1.169   3.547   1.558  0.00  0.00     0.028 H 
ENDBRANCH   7   9
BRANCH   7  13
ATOM     13  C12 <0> d           3.536   2.446  -0.660  0.00  0.00     0.263 C 
ATOM     14  O2  <0> d           4.574   1.865  -0.451  0.00  0.00    -0.265 OA
BRANCH  13  15
ATOM     15  O3  <0> d           3.412   3.231  -1.742  0.00  0.00    -0.326 OA
BRANCH  15  16
ATOM     16  C13 <0> d           4.549   3.332  -2.603  0.00  0.00     0.013 C 
ATOM     17  H21 <0> d           5.393   3.735  -2.044  0.00  0.00     0.067 H 
ATOM     18  H22 <0> d           4.804   2.343  -2.985  0.00  0.00     0.067 H 
ATOM     19  H23 <0> d           4.315   3.994  -3.437  0.00  0.00     0.067 H 
ENDBRANCH  15  16
ENDBRANCH  13  15
ENDBRANCH   7  13
ENDBRANCH   4   7
ENDBRANCH   1   4
BRANCH   1  20
ATOM     20  C4  <0> d           0.722  -0.017   2.011  0.00  0.00     0.012 C 
ATOM     21  H7  <0> d          -0.232   0.146   2.511  0.00  0.00     0.070 H 
ATOM     22  H8  <0> d           0.561  -0.091   0.935  0.00  0.00     0.070 H 
BRANCH  20  23
ATOM     23  C5  <0> d           1.342  -1.295   2.515  0.00  0.00    -0.095 C 
ATOM     24  C6  <0> d           0.635  -2.122   3.244  0.00  0.00    -0.123 C 
ATOM     25  H10 <0> d           1.106  -2.985   3.692  0.00  0.00     0.066 H 
ATOM     26  H11 <0> d          -0.419  -1.942   3.398  0.00  0.00     0.066 H 
ATOM     27  H9  <0> d           2.369  -1.529   2.275  0.00  0.00     0.078 H 
ENDBRANCH  20  23
ENDBRANCH   1  20
BRANCH   2  28
ATOM     28  C8  <0> d           0.202   1.645   4.247  0.00  0.00     0.030 C 
BRANCH  28  29
ATOM     29  C9  <0> d           0.232   2.616   5.428  0.00  0.00    -0.061 C 
ATOM     30  H12 <0> d           0.180   3.640   5.058  0.00  0.00     0.029 H 
ATOM     31  H13 <0> d          -0.620   2.423   6.080  0.00  0.00     0.029 H 
ATOM     32  H14 <0> d           1.157   2.479   5.989  0.00  0.00     0.029 H 
ENDBRANCH  28  29
BRANCH  28  33
ATOM     33  C10 <0> d          -1.096   1.837   3.461  0.00  0.00    -0.061 C 
ATOM     34  H15 <0> d          -1.377   0.897   2.987  0.00  0.00     0.029 H 
ATOM     35  H16 <0> d          -1.889   2.153   4.139  0.00  0.00     0.029 H 
ATOM     36  H17 <0> d          -0.948   2.600   2.696  0.00  0.00     0.029 H 
ENDBRANCH  28  33
BRANCH  28  37
ATOM     37  C11 <0> d           0.274   0.207   4.767  0.00  0.00    -0.061 C 
ATOM     38  H18 <0> d           1.306  -0.036   5.019  0.00  0.00     0.029 H 
ATOM     39  H19 <0> d          -0.349   0.111   5.656  0.00  0.00     0.029 H 
ATOM     40  H20 <0> d          -0.083  -0.476   3.997  0.00  0.00     0.029 H 
ENDBRANCH  28  37
ENDBRANCH   2  28
TORSDOF 12
