REMARK  8 active torsions:
REMARK  status: ('A' for Active; 'I' for Inactive)
REMARK    1  A    between atoms: C1_1  and  C2_2 
REMARK    2  A    between atoms: C2_2  and  O1_3 
REMARK    3  A    between atoms: O1_3  and  C3_4 
REMARK    4  A    between atoms: C3_4  and  C4_6 
REMARK    5  A    between atoms: C4_6  and  N1_7 
REMARK    6  A    between atoms: C11_15  and  C12_16 
REMARK    7  A    between atoms: C12_16  and  C13_17 
REMARK    8  A    between atoms: C13_17  and  C14_18 
ROOT
ATOM      1  N1  <0> d           1.450  -3.817  -2.491  0.00  0.00    -0.324 N 
ATOM      2  C5  <0> d           2.406  -4.625  -1.906  0.00  0.00     0.065 A 
ATOM      3  C6  <0> d           3.597  -4.380  -1.236  0.00  0.00    -0.053 A 
ATOM      4  C7  <0> d           4.344  -5.436  -0.759  0.00  0.00    -0.060 A 
ATOM      5  C8  <0> d           3.914  -6.743  -0.944  0.00  0.00     0.036 A 
ATOM      6  C9  <0> d           2.735  -7.004  -1.606  0.00  0.00    -0.032 A 
ATOM      7  C10 <0> d           1.966  -5.945  -2.096  0.00  0.00     0.087 A 
ATOM      8  N2  <0> d           0.790  -5.878  -2.772  0.00  0.00    -0.233 NA
ATOM      9  C11 <0> d           0.486  -4.633  -2.998  0.00  0.00     0.108 A 
ATOM     10 Cl1  <0> d           4.870  -8.059  -0.337  0.00  0.00    -0.084 Cl
ATOM     11  H8  <0> d           3.937  -3.366  -1.090  0.00  0.00     0.087 H 
ATOM     12  H9  <0> d           5.271  -5.244  -0.239  0.00  0.00     0.086 H 
ATOM     13  H10 <0> d           2.406  -8.023  -1.746  0.00  0.00     0.089 H 
ENDROOT
BRANCH   1  14
ATOM     14  C4  <0> d           1.468  -2.353  -2.550  0.00  0.00     0.082 C 
ATOM     15  H6  <0> d           0.950  -2.020  -3.449  0.00  0.00     0.080 H 
ATOM     16  H7  <0> d           2.500  -2.003  -2.574  0.00  0.00     0.080 H 
BRANCH  14  17
ATOM     17  C3  <0> d           0.775  -1.794  -1.334  0.00  0.00     0.277 C 
ATOM     18  O2  <0> d           0.314  -2.540  -0.504  0.00  0.00    -0.263 OA
BRANCH  17  19
ATOM     19  O1  <0> d           0.671  -0.465  -1.174  0.00  0.00    -0.321 OA
BRANCH  19  20
ATOM     20  C2  <0> d           0.002  -0.004   0.002  0.00  0.00     0.025 C 
ATOM     21  H4  <0> d           0.529  -0.365   0.885  0.00  0.00     0.074 H 
ATOM     22  H5  <0> d          -1.020  -0.381   0.010  0.00  0.00     0.074 H 
BRANCH  20  23
ATOM     23  C1  <0> d          -0.019   1.526   0.010  0.00  0.00    -0.056 C 
ATOM     24  H1  <0> d           1.004   1.903   0.003  0.00  0.00     0.030 H 
ATOM     25  H2  <0> d          -0.546   1.887  -0.873  0.00  0.00     0.030 H 
ATOM     26  H3  <0> d          -0.529   1.877   0.907  0.00  0.00     0.030 H 
ENDBRANCH  20  23
ENDBRANCH  19  20
ENDBRANCH  17  19
ENDBRANCH  14  17
ENDBRANCH   1  14
BRANCH   9  27
ATOM     27  C12 <0> d          -0.750  -4.163  -3.719  0.00  0.00    -0.001 C 
ATOM     28  H11 <0> d          -1.560  -4.873  -3.552  0.00  0.00     0.045 H 
ATOM     29  H12 <0> d          -1.043  -3.184  -3.339  0.00  0.00     0.045 H 
BRANCH  27  30
ATOM     30  C13 <0> d          -0.460  -4.063  -5.218  0.00  0.00     0.022 C 
ATOM     31  H13 <0> d           0.350  -3.352  -5.384  0.00  0.00     0.049 H 
ATOM     32  H14 <0> d          -0.168  -5.042  -5.597  0.00  0.00     0.049 H 
BRANCH  30  33
ATOM     33  C14 <0> d          -1.697  -3.593  -5.939  0.00  0.00     0.172 C 
ATOM     34  O3  <0> d          -2.716  -3.360  -5.312  0.00  0.00    -0.648 OA
ATOM     35  O4  <0> d          -1.678  -3.446  -7.149  0.00  0.00    -0.648 OA
ENDBRANCH  30  33
ENDBRANCH  27  30
ENDBRANCH   9  27
TORSDOF 8
