REMARK  11 active torsions:
REMARK  status: ('A' for Active; 'I' for Inactive)
REMARK    1  A    between atoms: C1_1  and  C2_2 
REMARK    2  A    between atoms: C2_2  and  O1_3 
REMARK    3  A    between atoms: O1_3  and  C3_4 
REMARK    4  A    between atoms: C3_4  and  C4_6 
REMARK    5  A    between atoms: C4_6  and  C5_7 
REMARK    6  A    between atoms: C5_7  and  N1_8 
REMARK    7  A    between atoms: N1_8  and  C6_9 
REMARK       I    between atoms: N1_8  and  C11_14 
REMARK    8  A    between atoms: C11_14  and  C12_16 
REMARK    9  A    between atoms: C12_16  and  C13_17 
REMARK   10  A    between atoms: C12_16  and  C14_18 
REMARK   11  A    between atoms: C12_16  and  C15_19 
ROOT
ATOM      1  N1  <0> d          -4.342  -4.444  -0.333  0.00  0.00    -0.346 N 
ATOM      2  C11 <0> d          -4.659  -4.679   0.956  0.00  0.00     0.227 C 
ATOM      3  O3  <0> d          -3.782  -4.864   1.772  0.00  0.00    -0.273 OA
ENDROOT
BRANCH   1   4
ATOM      4  C5  <0> d          -2.938  -4.309  -0.729  0.00  0.00     0.006 C 
ATOM      5  H8  <0> d          -2.834  -4.549  -1.787  0.00  0.00     0.065 H 
ATOM      6  H9  <0> d          -2.327  -4.994  -0.140  0.00  0.00     0.065 H 
BRANCH   4   7
ATOM      7  C4  <0> d          -2.474  -2.872  -0.483  0.00  0.00     0.031 C 
ATOM      8  H6  <0> d          -2.665  -2.602   0.556  0.00  0.00     0.050 H 
ATOM      9  H7  <0> d          -3.021  -2.197  -1.141  0.00  0.00     0.050 H 
BRANCH   7  10
ATOM     10  C3  <0> d          -0.998  -2.765  -0.767  0.00  0.00     0.260 C 
ATOM     11  O2  <0> d          -0.381  -3.739  -1.129  0.00  0.00    -0.265 OA
BRANCH  10  12
ATOM     12  O1  <0> d          -0.370  -1.589  -0.619  0.00  0.00    -0.322 OA
BRANCH  12  13
ATOM     13  C2  <0> d           1.030  -1.560  -0.906  0.00  0.00     0.025 C 
ATOM     14  H4  <0> d           1.194  -1.850  -1.943  0.00  0.00     0.074 H 
ATOM     15  H5  <0> d           1.550  -2.255  -0.247  0.00  0.00     0.074 H 
BRANCH  13  16
ATOM     16  C1  <0> d           1.568  -0.145  -0.681  0.00  0.00    -0.056 C 
ATOM     17  H1  <0> d           2.635  -0.123  -0.900  0.00  0.00     0.030 H 
ATOM     18  H2  <0> d           1.047   0.550  -1.339  0.00  0.00     0.030 H 
ATOM     19  H3  <0> d           1.404   0.145   0.357  0.00  0.00     0.030 H 
ENDBRANCH  13  16
ENDBRANCH  12  13
ENDBRANCH  10  12
ENDBRANCH   7  10
ENDBRANCH   4   7
ENDBRANCH   1   4
BRANCH   1  20
ATOM     20  C6  <0> d          -5.401  -4.323  -1.337  0.00  0.00     0.014 C 
ATOM     21  C10 <0> d          -5.153  -5.315  -2.487  0.00  0.00    -0.046 C 
ATOM     22  C9  <0> d          -4.989  -4.472  -3.769  0.00  0.00    -0.063 C 
ATOM     23  H17 <0> d          -4.244  -5.886  -2.297  0.00  0.00     0.036 H 
ATOM     24  H18 <0> d          -6.003  -5.989  -2.589  0.00  0.00     0.036 H 
ATOM     25  C8  <0> d          -4.545  -3.080  -3.254  0.00  0.00    -0.063 C 
ATOM     26  H15 <0> d          -5.938  -4.397  -4.300  0.00  0.00     0.033 H 
ATOM     27  H16 <0> d          -4.223  -4.903  -4.413  0.00  0.00     0.033 H 
ATOM     28  C7  <0> d          -5.380  -2.912  -1.960  0.00  0.00    -0.046 C 
ATOM     29  H13 <0> d          -4.793  -2.304  -3.978  0.00  0.00     0.033 H 
ATOM     30  H14 <0> d          -3.479  -3.074  -3.029  0.00  0.00     0.033 H 
ATOM     31  H11 <0> d          -6.392  -2.585  -2.200  0.00  0.00     0.036 H 
ATOM     32  H12 <0> d          -4.899  -2.204  -1.285  0.00  0.00     0.036 H 
ATOM     33  H10 <0> d          -6.372  -4.516  -0.881  0.00  0.00     0.072 H 
ENDBRANCH   1  20
BRANCH   2  34
ATOM     34  C12 <0> d          -6.104  -4.710   1.383  0.00  0.00     0.030 C 
BRANCH  34  35
ATOM     35  C13 <0> d          -6.184  -4.868   2.902  0.00  0.00    -0.061 C 
ATOM     36  H19 <0> d          -5.682  -4.028   3.382  0.00  0.00     0.029 H 
ATOM     37  H20 <0> d          -7.229  -4.891   3.211  0.00  0.00     0.029 H 
ATOM     38  H21 <0> d          -5.698  -5.798   3.197  0.00  0.00     0.029 H 
ENDBRANCH  34  35
BRANCH  34  39
ATOM     39  C14 <0> d          -6.787  -3.405   0.969  0.00  0.00    -0.061 C 
ATOM     40  H22 <0> d          -6.768  -3.313  -0.117  0.00  0.00     0.029 H 
ATOM     41  H23 <0> d          -7.821  -3.410   1.315  0.00  0.00     0.029 H 
ATOM     42  H24 <0> d          -6.259  -2.562   1.414  0.00  0.00     0.029 H 
ENDBRANCH  34  39
BRANCH  34  43
ATOM     43  C15 <0> d          -6.809  -5.890   0.710  0.00  0.00    -0.061 C 
ATOM     44  H25 <0> d          -6.520  -6.817   1.205  0.00  0.00     0.029 H 
ATOM     45  H26 <0> d          -7.888  -5.760   0.785  0.00  0.00     0.029 H 
ATOM     46  H27 <0> d          -6.521  -5.934  -0.341  0.00  0.00     0.029 H 
ENDBRANCH  34  43
ENDBRANCH   2  34
TORSDOF 11
