REMARK  8 active torsions:
REMARK  status: ('A' for Active; 'I' for Inactive)
REMARK    1  A    between atoms: C1_1  and  O1_2 
REMARK    2  A    between atoms: O1_2  and  C2_3 
REMARK    3  A    between atoms: C2_3  and  C3_5 
REMARK    4  A    between atoms: C3_5  and  C4_6 
REMARK    5  A    between atoms: C4_6  and  N1_7 
REMARK    6  A    between atoms: N1_7  and  C5_8 
REMARK       I    between atoms: N1_7  and  C10_13 
REMARK    7  A    between atoms: C10_13  and  C11_15 
REMARK    8  A    between atoms: C11_15  and  C12_16 
ROOT
ATOM      1  N1  <0> d           1.543  -3.972  -2.415  0.00  0.00    -0.347 N 
ATOM      2  C10 <0> d           2.469  -4.540  -1.617  0.00  0.00     0.224 C 
ATOM      3  O3  <0> d           3.336  -3.857  -1.113  0.00  0.00    -0.273 OA
ENDROOT
BRANCH   1   4
ATOM      4  C4  <0> d           1.516  -2.517  -2.586  0.00  0.00     0.006 C 
ATOM      5  H6  <0> d           1.040  -2.272  -3.535  0.00  0.00     0.065 H 
ATOM      6  H7  <0> d           2.536  -2.131  -2.579  0.00  0.00     0.065 H 
BRANCH   4   7
ATOM      7  C3  <0> d           0.725  -1.884  -1.440  0.00  0.00     0.031 C 
ATOM      8  H4  <0> d           1.130  -2.224  -0.487  0.00  0.00     0.050 H 
ATOM      9  H5  <0> d          -0.322  -2.179  -1.515  0.00  0.00     0.050 H 
BRANCH   7  10
ATOM     10  C2  <0> d           0.831  -0.383  -1.525  0.00  0.00     0.259 C 
ATOM     11  O2  <0> d           1.475   0.128  -2.411  0.00  0.00    -0.265 OA
BRANCH  10  12
ATOM     12  O1  <0> d           0.212   0.386  -0.616  0.00  0.00    -0.326 OA
BRANCH  12  13
ATOM     13  C1  <0> d           0.356   1.801  -0.757  0.00  0.00     0.013 C 
ATOM     14  H1  <0> d           1.411   2.067  -0.696  0.00  0.00     0.067 H 
ATOM     15  H2  <0> d          -0.041   2.112  -1.724  0.00  0.00     0.067 H 
ATOM     16  H3  <0> d          -0.193   2.304   0.039  0.00  0.00     0.067 H 
ENDBRANCH  12  13
ENDBRANCH  10  12
ENDBRANCH   7  10
ENDBRANCH   4   7
ENDBRANCH   1   4
BRANCH   1  17
ATOM     17  C5  <0> d           0.564  -4.810  -3.111  0.00  0.00     0.014 C 
ATOM     18  C9  <0> d          -0.851  -4.518  -2.582  0.00  0.00    -0.046 C 
ATOM     19  C8  <0> d          -1.674  -4.009  -3.783  0.00  0.00    -0.063 C 
ATOM     20  H15 <0> d          -1.296  -5.430  -2.184  0.00  0.00     0.036 H 
ATOM     21  H16 <0> d          -0.809  -3.753  -1.807  0.00  0.00     0.036 H 
ATOM     22  C7  <0> d          -0.940  -4.585  -5.019  0.00  0.00    -0.063 C 
ATOM     23  H13 <0> d          -1.673  -2.919  -3.812  0.00  0.00     0.033 H 
ATOM     24  H14 <0> d          -2.695  -4.389  -3.734  0.00  0.00     0.033 H 
ATOM     25  C6  <0> d           0.551  -4.468  -4.616  0.00  0.00    -0.046 C 
ATOM     26  H11 <0> d          -1.148  -3.986  -5.906  0.00  0.00     0.033 H 
ATOM     27  H12 <0> d          -1.215  -5.627  -5.181  0.00  0.00     0.033 H 
ATOM     28  H9  <0> d           0.912  -3.452  -4.779  0.00  0.00     0.036 H 
ATOM     29  H10 <0> d           1.155  -5.183  -5.175  0.00  0.00     0.036 H 
ATOM     30  H8  <0> d           0.806  -5.863  -2.970  0.00  0.00     0.072 H 
ENDBRANCH   1  17
BRANCH   2  31
ATOM     31  C11 <0> d           2.427  -6.022  -1.350  0.00  0.00     0.033 C 
ATOM     32  H17 <0> d           1.445  -6.294  -0.963  0.00  0.00     0.054 H 
ATOM     33  H18 <0> d           2.616  -6.564  -2.277  0.00  0.00     0.054 H 
BRANCH  31  34
ATOM     34  C12 <0> d           3.483  -6.380  -0.336  0.00  0.00    -0.049 A 
ATOM     35  C17 <0> d           3.179  -6.363   1.013  0.00  0.00    -0.075 A 
ATOM     36  C16 <0> d           4.145  -6.697   1.944  0.00  0.00    -0.061 A 
ATOM     37  H22 <0> d           2.186  -6.092   1.339  0.00  0.00     0.084 H 
ATOM     38  C15 <0> d           5.420  -7.037   1.526  0.00  0.00     0.034 A 
ATOM     39  H21 <0> d           3.907  -6.688   2.997  0.00  0.00     0.086 H 
ATOM     40  C14 <0> d           5.724  -7.049   0.176  0.00  0.00    -0.061 A 
ATOM     41 Cl1  <0> d           6.635  -7.450   2.694  0.00  0.00    -0.084 Cl
ATOM     42  C13 <0> d           4.756  -6.720  -0.754  0.00  0.00    -0.075 A 
ATOM     43  H20 <0> d           6.719  -7.315  -0.151  0.00  0.00     0.086 H 
ATOM     44  H19 <0> d           4.993  -6.730  -1.807  0.00  0.00     0.084 H 
ENDBRANCH  31  34
ENDBRANCH   2  31
TORSDOF 8
