REMARK  11 active torsions:
REMARK  status: ('A' for Active; 'I' for Inactive)
REMARK    1  A    between atoms: C1_1  and  C2_2 
REMARK    2  A    between atoms: C2_2  and  C3_4 
REMARK    3  A    between atoms: C2_2  and  C14_17 
REMARK    4  A    between atoms: C3_4  and  N1_5 
REMARK    5  A    between atoms: N1_5  and  C4_6 
REMARK       I    between atoms: N1_5  and  C9_11 
REMARK    6  A    between atoms: C9_11  and  C10_13 
REMARK    7  A    between atoms: C10_13  and  C11_14 
REMARK    8  A    between atoms: C10_13  and  C12_15 
REMARK    9  A    between atoms: C10_13  and  C13_16 
REMARK   10  A    between atoms: C14_17  and  O3_19 
REMARK   11  A    between atoms: O3_19  and  C15_20 
ROOT
ATOM      1  N1  <0> d          -1.391   0.155   1.313  0.00  0.00    -0.346 N 
ATOM      2  C9  <0> d          -1.582  -0.774   2.270  0.00  0.00     0.227 C 
ATOM      3  O1  <0> d          -2.247  -0.507   3.249  0.00  0.00    -0.273 OA
ENDROOT
BRANCH   1   4
ATOM      4  C3  <0> d          -0.490  -0.123   0.192  0.00  0.00     0.010 C 
ATOM      5  H5  <0> d          -0.873   0.355  -0.710  0.00  0.00     0.065 H 
ATOM      6  H6  <0> d          -0.429  -1.200   0.033  0.00  0.00     0.065 H 
BRANCH   4   7
ATOM      7  C2  <0> d           0.903   0.425   0.508  0.00  0.00     0.042 C 
ATOM      8  H1  <0> d           1.263  -0.013   1.439  0.00  0.00     0.057 H 
BRANCH   7   9
ATOM      9  C1  <0> d           0.831   1.946   0.654  0.00  0.00    -0.063 C 
ATOM     10  H2  <0> d           1.823   2.337   0.880  0.00  0.00     0.028 H 
ATOM     11  H3  <0> d           0.471   2.384  -0.277  0.00  0.00     0.028 H 
ATOM     12  H4  <0> d           0.147   2.201   1.464  0.00  0.00     0.028 H 
ENDBRANCH   7   9
BRANCH   7  13
ATOM     13  C14 <0> d           1.848   0.072  -0.612  0.00  0.00     0.263 C 
ATOM     14  O2  <0> d           1.448  -0.553  -1.565  0.00  0.00    -0.265 OA
BRANCH  13  15
ATOM     15  O3  <0> d           3.133   0.454  -0.550  0.00  0.00    -0.326 OA
BRANCH  15  16
ATOM     16  C15 <0> d           3.972   0.085  -1.647  0.00  0.00     0.013 C 
ATOM     17  H25 <0> d           3.993  -1.001  -1.740  0.00  0.00     0.067 H 
ATOM     18  H26 <0> d           3.581   0.521  -2.566  0.00  0.00     0.067 H 
ATOM     19  H27 <0> d           4.983   0.454  -1.471  0.00  0.00     0.067 H 
ENDBRANCH  15  16
ENDBRANCH  13  15
ENDBRANCH   7  13
ENDBRANCH   4   7
ENDBRANCH   1   4
BRANCH   1  20
ATOM     20  C4  <0> d          -2.083   1.444   1.393  0.00  0.00     0.014 C 
ATOM     21  C8  <0> d          -3.600   1.237   1.242  0.00  0.00    -0.046 C 
ATOM     22  C7  <0> d          -4.247   1.752   2.545  0.00  0.00    -0.063 C 
ATOM     23  H14 <0> d          -3.972   1.807   0.390  0.00  0.00     0.036 H 
ATOM     24  H15 <0> d          -3.822   0.178   1.109  0.00  0.00     0.036 H 
ATOM     25  C6  <0> d          -3.213   2.757   3.111  0.00  0.00    -0.063 C 
ATOM     26  H12 <0> d          -4.403   0.931   3.244  0.00  0.00     0.033 H 
ATOM     27  H13 <0> d          -5.190   2.256   2.330  0.00  0.00     0.033 H 
ATOM     28  C5  <0> d          -1.861   2.077   2.782  0.00  0.00    -0.046 C 
ATOM     29  H10 <0> d          -3.336   2.873   4.188  0.00  0.00     0.033 H 
ATOM     30  H11 <0> d          -3.294   3.720   2.606  0.00  0.00     0.033 H 
ATOM     31  H8  <0> d          -1.631   1.308   3.520  0.00  0.00     0.036 H 
ATOM     32  H9  <0> d          -1.062   2.818   2.740  0.00  0.00     0.036 H 
ATOM     33  H7  <0> d          -1.718   2.113   0.614  0.00  0.00     0.072 H 
ENDBRANCH   1  20
BRANCH   2  34
ATOM     34  C10 <0> d          -0.971  -2.143   2.124  0.00  0.00     0.030 C 
BRANCH  34  35
ATOM     35  C11 <0> d          -1.238  -2.958   3.391  0.00  0.00    -0.061 C 
ATOM     36  H16 <0> d          -2.313  -3.055   3.542  0.00  0.00     0.029 H 
ATOM     37  H17 <0> d          -0.795  -3.949   3.286  0.00  0.00     0.029 H 
ATOM     38  H18 <0> d          -0.795  -2.452   4.249  0.00  0.00     0.029 H 
ENDBRANCH  34  35
BRANCH  34  39
ATOM     39  C12 <0> d          -1.593  -2.854   0.920  0.00  0.00    -0.061 C 
ATOM     40  H19 <0> d          -1.468  -2.237   0.030  0.00  0.00     0.029 H 
ATOM     41  H20 <0> d          -1.099  -3.814   0.770  0.00  0.00     0.029 H 
ATOM     42  H21 <0> d          -2.655  -3.016   1.103  0.00  0.00     0.029 H 
ENDBRANCH  34  39
BRANCH  34  43
ATOM     43  C13 <0> d           0.538  -2.008   1.913  0.00  0.00    -0.061 C 
ATOM     44  H22 <0> d           0.958  -1.368   2.689  0.00  0.00     0.029 H 
ATOM     45  H23 <0> d           1.002  -2.993   1.965  0.00  0.00     0.029 H 
ATOM     46  H24 <0> d           0.730  -1.567   0.935  0.00  0.00     0.029 H 
ENDBRANCH  34  43
ENDBRANCH   2  34
TORSDOF 11
